/*---------------------------------------------------------------------------*\
| =========                 |                                                 |
| \\      /  F ield         | OpenFOAM: The Open Source CFD Toolbox           |
|  \\    /   O peration     | Version:  5.x                                   |
|   \\  /    A nd           | Web:      www.OpenFOAM.org                      |
|    \\/     M anipulation  |                                                 |
\*---------------------------------------------------------------------------*/
Build  : 5.x-7f7d351b741b
Exec   : simpleFoam
Date   : Jun 21 2020
Time   : 16:08:43
Host   : "suraj-MS-7B06"
PID    : 10020
I/O    : uncollated
Case   : /media/suraj/My4TBHD1/git_workspace/ANL/RLLib_Theta/openfoam/multiple_velocity_dynamic_relaxation
nProcs : 1
sigFpe : Enabling floating point exception trapping (FOAM_SIGFPE).
fileModificationChecking : Monitoring run-time modified files using timeStampMaster (fileModificationSkew 10)
allowSystemOperations : Allowing user-supplied system call operations

// * * * * * * * * * * * * * * * * * * * * * * * * * * * * * * * * * * * * * //
Create time

Create mesh for time = 400


SIMPLE: convergence criteria
    field p	 tolerance 0.01
    field U	 tolerance 0.001
    field "(k|epsilon|omega|f|v2)"	 tolerance 0.001

Reading field p

Reading field U

Reading/calculating face flux field phi

Selecting incompressible transport model Newtonian
Selecting turbulence model type RAS
Selecting RAS turbulence model kEpsilon
RAS
{
    RASModel        kEpsilon;
    turbulence      on;
    printCoeffs     on;
    Cmu             0.09;
    C1              1.44;
    C2              1.92;
    C3              0;
    sigmak          1;
    sigmaEps        1.3;
}

No MRF models present

No finite volume options present


Starting time loop

streamLine streamlines:
    automatic track length specified through number of sub cycles : 5

Time = 401

smoothSolver:  Solving for Ux, Initial residual = 0.0023177, Final residual = 3.35324e-07, No Iterations 7
smoothSolver:  Solving for Uy, Initial residual = 0.00773242, Final residual = 4.05309e-07, No Iterations 8
GAMG:  Solving for p, Initial residual = 0.0174911, Final residual = 3.88664e-07, No Iterations 13
time step continuity errors : sum local = 2.29185e-06, global = 4.54417e-07, cumulative = 4.54417e-07
smoothSolver:  Solving for epsilon, Initial residual = 0.00196532, Final residual = 7.08895e-07, No Iterations 6
smoothSolver:  Solving for k, Initial residual = 0.00310632, Final residual = 4.73013e-07, No Iterations 7
ExecutionTime = 0.26 s  ClockTime = 0 s

Time = 402

smoothSolver:  Solving for Ux, Initial residual = 0.00230782, Final residual = 3.35415e-07, No Iterations 7
smoothSolver:  Solving for Uy, Initial residual = 0.00772262, Final residual = 4.04988e-07, No Iterations 8
GAMG:  Solving for p, Initial residual = 0.0143675, Final residual = 6.21239e-07, No Iterations 13
time step continuity errors : sum local = 3.65418e-06, global = 3.98224e-07, cumulative = 8.52641e-07
smoothSolver:  Solving for epsilon, Initial residual = 0.00199823, Final residual = 7.18937e-07, No Iterations 6
smoothSolver:  Solving for k, Initial residual = 0.00312869, Final residual = 4.76386e-07, No Iterations 7
ExecutionTime = 0.29 s  ClockTime = 0 s

Time = 403

smoothSolver:  Solving for Ux, Initial residual = 0.00229667, Final residual = 3.34355e-07, No Iterations 7
smoothSolver:  Solving for Uy, Initial residual = 0.00769793, Final residual = 4.04432e-07, No Iterations 8
GAMG:  Solving for p, Initial residual = 0.012214, Final residual = 5.29472e-07, No Iterations 13
time step continuity errors : sum local = 3.11303e-06, global = 3.42045e-07, cumulative = 1.19469e-06
smoothSolver:  Solving for epsilon, Initial residual = 0.00203564, Final residual = 7.29219e-07, No Iterations 6
smoothSolver:  Solving for k, Initial residual = 0.00315411, Final residual = 4.79963e-07, No Iterations 7
ExecutionTime = 0.33 s  ClockTime = 0 s

Time = 404

smoothSolver:  Solving for Ux, Initial residual = 0.00228461, Final residual = 3.33528e-07, No Iterations 7
smoothSolver:  Solving for Uy, Initial residual = 0.0076751, Final residual = 4.03996e-07, No Iterations 8
GAMG:  Solving for p, Initial residual = 0.0104764, Final residual = 4.32226e-07, No Iterations 13
time step continuity errors : sum local = 2.54577e-06, global = 2.85866e-07, cumulative = 1.48055e-06
smoothSolver:  Solving for epsilon, Initial residual = 0.00206995, Final residual = 7.39525e-07, No Iterations 6
smoothSolver:  Solving for k, Initial residual = 0.00318003, Final residual = 4.83711e-07, No Iterations 7
ExecutionTime = 0.36 s  ClockTime = 0 s

Time = 405

smoothSolver:  Solving for Ux, Initial residual = 0.00227247, Final residual = 3.334e-07, No Iterations 7
smoothSolver:  Solving for Uy, Initial residual = 0.00765952, Final residual = 4.03934e-07, No Iterations 8
GAMG:  Solving for p, Initial residual = 0.00928773, Final residual = 3.95431e-07, No Iterations 13
time step continuity errors : sum local = 2.33401e-06, global = 2.58932e-07, cumulative = 1.73948e-06
smoothSolver:  Solving for epsilon, Initial residual = 0.00209943, Final residual = 7.50181e-07, No Iterations 6
smoothSolver:  Solving for k, Initial residual = 0.00320553, Final residual = 4.87386e-07, No Iterations 7
ExecutionTime = 0.39 s  ClockTime = 0 s

Time = 406

smoothSolver:  Solving for Ux, Initial residual = 0.00226178, Final residual = 3.33329e-07, No Iterations 7
smoothSolver:  Solving for Uy, Initial residual = 0.00764864, Final residual = 4.03965e-07, No Iterations 8
GAMG:  Solving for p, Initial residual = 0.0093873, Final residual = 3.97038e-07, No Iterations 13
time step continuity errors : sum local = 2.3401e-06, global = 2.40643e-07, cumulative = 1.98013e-06
smoothSolver:  Solving for epsilon, Initial residual = 0.00212715, Final residual = 7.60251e-07, No Iterations 6
smoothSolver:  Solving for k, Initial residual = 0.00323181, Final residual = 4.91156e-07, No Iterations 7
ExecutionTime = 0.43 s  ClockTime = 0 s

Time = 407

smoothSolver:  Solving for Ux, Initial residual = 0.00225187, Final residual = 3.32847e-07, No Iterations 7
smoothSolver:  Solving for Uy, Initial residual = 0.00763628, Final residual = 4.0383e-07, No Iterations 8
GAMG:  Solving for p, Initial residual = 0.00928508, Final residual = 3.92934e-07, No Iterations 13
time step continuity errors : sum local = 2.3137e-06, global = 2.30093e-07, cumulative = 2.21022e-06
smoothSolver:  Solving for epsilon, Initial residual = 0.00215336, Final residual = 7.69969e-07, No Iterations 6
smoothSolver:  Solving for k, Initial residual = 0.00325754, Final residual = 4.95063e-07, No Iterations 7
ExecutionTime = 0.46 s  ClockTime = 0 s

Time = 408

smoothSolver:  Solving for Ux, Initial residual = 0.00224075, Final residual = 3.32102e-07, No Iterations 7
smoothSolver:  Solving for Uy, Initial residual = 0.00762039, Final residual = 4.03656e-07, No Iterations 8
GAMG:  Solving for p, Initial residual = 0.00884902, Final residual = 3.81833e-07, No Iterations 13
time step continuity errors : sum local = 2.2482e-06, global = 2.39072e-07, cumulative = 2.44929e-06
smoothSolver:  Solving for epsilon, Initial residual = 0.00218356, Final residual = 7.79297e-07, No Iterations 6
smoothSolver:  Solving for k, Initial residual = 0.00328422, Final residual = 4.98941e-07, No Iterations 7
ExecutionTime = 0.5 s  ClockTime = 0 s

Time = 409

smoothSolver:  Solving for Ux, Initial residual = 0.00223317, Final residual = 3.31503e-07, No Iterations 7
smoothSolver:  Solving for Uy, Initial residual = 0.0076213, Final residual = 4.03656e-07, No Iterations 8
GAMG:  Solving for p, Initial residual = 0.0132351, Final residual = 4.58534e-07, No Iterations 13
time step continuity errors : sum local = 2.70881e-06, global = 3.56483e-07, cumulative = 2.80578e-06
smoothSolver:  Solving for epsilon, Initial residual = 0.00222905, Final residual = 7.88617e-07, No Iterations 6
smoothSolver:  Solving for k, Initial residual = 0.00331283, Final residual = 5.02662e-07, No Iterations 7
ExecutionTime = 0.53 s  ClockTime = 0 s

Time = 410

smoothSolver:  Solving for Ux, Initial residual = 0.00222151, Final residual = 3.31177e-07, No Iterations 7
smoothSolver:  Solving for Uy, Initial residual = 0.00761116, Final residual = 4.03684e-07, No Iterations 8
GAMG:  Solving for p, Initial residual = 0.0108075, Final residual = 3.18079e-07, No Iterations 13
time step continuity errors : sum local = 1.87521e-06, global = 1.93485e-07, cumulative = 2.99926e-06
smoothSolver:  Solving for epsilon, Initial residual = 0.00224994, Final residual = 7.96533e-07, No Iterations 6
smoothSolver:  Solving for k, Initial residual = 0.00333704, Final residual = 5.06543e-07, No Iterations 7
ExecutionTime = 0.57 s  ClockTime = 0 s

Time = 411

smoothSolver:  Solving for Ux, Initial residual = 0.0022095, Final residual = 3.30684e-07, No Iterations 7
smoothSolver:  Solving for Uy, Initial residual = 0.00760031, Final residual = 4.03777e-07, No Iterations 8
GAMG:  Solving for p, Initial residual = 0.00992762, Final residual = 3.13817e-07, No Iterations 13
time step continuity errors : sum local = 1.85027e-06, global = 2.09748e-07, cumulative = 3.20901e-06
smoothSolver:  Solving for epsilon, Initial residual = 0.00226093, Final residual = 8.04773e-07, No Iterations 6
smoothSolver:  Solving for k, Initial residual = 0.00336066, Final residual = 5.10244e-07, No Iterations 7
ExecutionTime = 0.59 s  ClockTime = 0 s

Time = 412

smoothSolver:  Solving for Ux, Initial residual = 0.00219704, Final residual = 3.29959e-07, No Iterations 7
smoothSolver:  Solving for Uy, Initial residual = 0.00758286, Final residual = 4.03795e-07, No Iterations 8
GAMG:  Solving for p, Initial residual = 0.00984459, Final residual = 3.2924e-07, No Iterations 13
time step continuity errors : sum local = 1.93947e-06, global = 2.30588e-07, cumulative = 3.4396e-06
smoothSolver:  Solving for epsilon, Initial residual = 0.00227904, Final residual = 8.12532e-07, No Iterations 6
smoothSolver:  Solving for k, Initial residual = 0.00338418, Final residual = 5.13897e-07, No Iterations 7
ExecutionTime = 0.63 s  ClockTime = 0 s

Time = 413

smoothSolver:  Solving for Ux, Initial residual = 0.00218499, Final residual = 3.2925e-07, No Iterations 7
smoothSolver:  Solving for Uy, Initial residual = 0.0075727, Final residual = 4.03814e-07, No Iterations 8
GAMG:  Solving for p, Initial residual = 0.00910597, Final residual = 3.26886e-07, No Iterations 13
time step continuity errors : sum local = 1.92455e-06, global = 2.21259e-07, cumulative = 3.66086e-06
smoothSolver:  Solving for epsilon, Initial residual = 0.00230144, Final residual = 8.19491e-07, No Iterations 6
smoothSolver:  Solving for k, Initial residual = 0.00340854, Final residual = 5.17661e-07, No Iterations 7
ExecutionTime = 0.66 s  ClockTime = 0 s

Time = 414

smoothSolver:  Solving for Ux, Initial residual = 0.00217348, Final residual = 3.28678e-07, No Iterations 7
smoothSolver:  Solving for Uy, Initial residual = 0.00756422, Final residual = 4.03896e-07, No Iterations 8
GAMG:  Solving for p, Initial residual = 0.00834499, Final residual = 9.66619e-07, No Iterations 12
time step continuity errors : sum local = 5.70576e-06, global = -9.17797e-07, cumulative = 2.74306e-06
smoothSolver:  Solving for epsilon, Initial residual = 0.0023145, Final residual = 8.2667e-07, No Iterations 6
smoothSolver:  Solving for k, Initial residual = 0.00343035, Final residual = 5.21187e-07, No Iterations 7
ExecutionTime = 0.7 s  ClockTime = 0 s

Time = 415

smoothSolver:  Solving for Ux, Initial residual = 0.00216199, Final residual = 3.28048e-07, No Iterations 7
smoothSolver:  Solving for Uy, Initial residual = 0.00755428, Final residual = 4.04033e-07, No Iterations 8
GAMG:  Solving for p, Initial residual = 0.00779705, Final residual = 9.28454e-07, No Iterations 12
time step continuity errors : sum local = 5.47589e-06, global = -9.28074e-07, cumulative = 1.81498e-06
smoothSolver:  Solving for epsilon, Initial residual = 0.0023328, Final residual = 8.33377e-07, No Iterations 6
smoothSolver:  Solving for k, Initial residual = 0.00345277, Final residual = 5.24596e-07, No Iterations 7
ExecutionTime = 0.74 s  ClockTime = 0 s

Time = 416

smoothSolver:  Solving for Ux, Initial residual = 0.00215115, Final residual = 3.27306e-07, No Iterations 7
smoothSolver:  Solving for Uy, Initial residual = 0.0075464, Final residual = 4.04156e-07, No Iterations 8
GAMG:  Solving for p, Initial residual = 0.00909639, Final residual = 3.08217e-07, No Iterations 13
time step continuity errors : sum local = 1.81618e-06, global = 1.56735e-07, cumulative = 1.97172e-06
smoothSolver:  Solving for epsilon, Initial residual = 0.00235114, Final residual = 8.38998e-07, No Iterations 6
smoothSolver:  Solving for k, Initial residual = 0.00347487, Final residual = 5.28108e-07, No Iterations 7
ExecutionTime = 0.77 s  ClockTime = 0 s

Time = 417

smoothSolver:  Solving for Ux, Initial residual = 0.00214007, Final residual = 3.26546e-07, No Iterations 7
smoothSolver:  Solving for Uy, Initial residual = 0.00753611, Final residual = 4.04242e-07, No Iterations 8
GAMG:  Solving for p, Initial residual = 0.00930719, Final residual = 8.81178e-07, No Iterations 11
time step continuity errors : sum local = 5.20384e-06, global = 2.11667e-06, cumulative = 4.08839e-06
smoothSolver:  Solving for epsilon, Initial residual = 0.00235719, Final residual = 8.45151e-07, No Iterations 6
smoothSolver:  Solving for k, Initial residual = 0.00349402, Final residual = 5.31387e-07, No Iterations 7
ExecutionTime = 0.8 s  ClockTime = 0 s

Time = 418

smoothSolver:  Solving for Ux, Initial residual = 0.00212785, Final residual = 3.25758e-07, No Iterations 7
smoothSolver:  Solving for Uy, Initial residual = 0.00752653, Final residual = 4.04408e-07, No Iterations 8
GAMG:  Solving for p, Initial residual = 0.00841427, Final residual = 5.31766e-07, No Iterations 12
time step continuity errors : sum local = 3.13863e-06, global = -4.21478e-07, cumulative = 3.66691e-06
smoothSolver:  Solving for epsilon, Initial residual = 0.00236961, Final residual = 8.50824e-07, No Iterations 6
smoothSolver:  Solving for k, Initial residual = 0.00351348, Final residual = 5.34521e-07, No Iterations 7
ExecutionTime = 0.84 s  ClockTime = 0 s

Time = 419

smoothSolver:  Solving for Ux, Initial residual = 0.00211665, Final residual = 3.2492e-07, No Iterations 7
smoothSolver:  Solving for Uy, Initial residual = 0.00752157, Final residual = 4.04611e-07, No Iterations 8
GAMG:  Solving for p, Initial residual = 0.00864902, Final residual = 5.67563e-07, No Iterations 12
time step continuity errors : sum local = 3.34581e-06, global = -4.99261e-07, cumulative = 3.16765e-06
smoothSolver:  Solving for epsilon, Initial residual = 0.00238328, Final residual = 8.55211e-07, No Iterations 6
smoothSolver:  Solving for k, Initial residual = 0.00353272, Final residual = 5.37759e-07, No Iterations 7
ExecutionTime = 0.87 s  ClockTime = 0 s

Time = 420

smoothSolver:  Solving for Ux, Initial residual = 0.00210539, Final residual = 3.24144e-07, No Iterations 7
smoothSolver:  Solving for Uy, Initial residual = 0.0075123, Final residual = 4.04752e-07, No Iterations 8
GAMG:  Solving for p, Initial residual = 0.00886298, Final residual = 5.78549e-07, No Iterations 12
time step continuity errors : sum local = 3.42089e-06, global = -5.48673e-07, cumulative = 2.61898e-06
smoothSolver:  Solving for epsilon, Initial residual = 0.00238536, Final residual = 8.6038e-07, No Iterations 6
smoothSolver:  Solving for k, Initial residual = 0.00354956, Final residual = 5.40679e-07, No Iterations 7
ExecutionTime = 0.9 s  ClockTime = 1 s

Time = 421

smoothSolver:  Solving for Ux, Initial residual = 0.00209369, Final residual = 3.23264e-07, No Iterations 7
smoothSolver:  Solving for Uy, Initial residual = 0.00750409, Final residual = 4.0491e-07, No Iterations 8
GAMG:  Solving for p, Initial residual = 0.0083418, Final residual = 6.35939e-07, No Iterations 12
time step continuity errors : sum local = 3.75755e-06, global = -6.96362e-07, cumulative = 1.92261e-06
smoothSolver:  Solving for epsilon, Initial residual = 0.00239303, Final residual = 8.64948e-07, No Iterations 6
smoothSolver:  Solving for k, Initial residual = 0.00356602, Final residual = 5.4358e-07, No Iterations 7
ExecutionTime = 0.94 s  ClockTime = 1 s

Time = 422

smoothSolver:  Solving for Ux, Initial residual = 0.00208388, Final residual = 3.22309e-07, No Iterations 7
smoothSolver:  Solving for Uy, Initial residual = 0.00750259, Final residual = 4.05123e-07, No Iterations 8
GAMG:  Solving for p, Initial residual = 0.00912783, Final residual = 5.44044e-07, No Iterations 12
time step continuity errors : sum local = 3.21112e-06, global = -1.81412e-07, cumulative = 1.7412e-06
smoothSolver:  Solving for epsilon, Initial residual = 0.00240275, Final residual = 8.68404e-07, No Iterations 6
smoothSolver:  Solving for k, Initial residual = 0.0035834, Final residual = 5.4653e-07, No Iterations 7
ExecutionTime = 0.97 s  ClockTime = 1 s

Time = 423

smoothSolver:  Solving for Ux, Initial residual = 0.00207272, Final residual = 3.21451e-07, No Iterations 7
smoothSolver:  Solving for Uy, Initial residual = 0.00749582, Final residual = 4.05293e-07, No Iterations 8
GAMG:  Solving for p, Initial residual = 0.00902046, Final residual = 5.7298e-07, No Iterations 12
time step continuity errors : sum local = 3.39389e-06, global = -5.1111e-07, cumulative = 1.23009e-06
smoothSolver:  Solving for epsilon, Initial residual = 0.00240156, Final residual = 8.72666e-07, No Iterations 6
smoothSolver:  Solving for k, Initial residual = 0.00359688, Final residual = 5.49127e-07, No Iterations 7
ExecutionTime = 1 s  ClockTime = 1 s

Time = 424

smoothSolver:  Solving for Ux, Initial residual = 0.00206069, Final residual = 3.20495e-07, No Iterations 7
smoothSolver:  Solving for Uy, Initial residual = 0.00748767, Final residual = 4.05476e-07, No Iterations 8
GAMG:  Solving for p, Initial residual = 0.00802078, Final residual = 8.92618e-07, No Iterations 11
time step continuity errors : sum local = 5.28182e-06, global = 1.70959e-06, cumulative = 2.93968e-06
smoothSolver:  Solving for epsilon, Initial residual = 0.00240498, Final residual = 8.76426e-07, No Iterations 6
smoothSolver:  Solving for k, Initial residual = 0.00361084, Final residual = 5.51763e-07, No Iterations 7
ExecutionTime = 1.04 s  ClockTime = 1 s

Time = 425

smoothSolver:  Solving for Ux, Initial residual = 0.00204931, Final residual = 3.19487e-07, No Iterations 7
smoothSolver:  Solving for Uy, Initial residual = 0.00748511, Final residual = 4.05665e-07, No Iterations 8
GAMG:  Solving for p, Initial residual = 0.0085219, Final residual = 9.06986e-07, No Iterations 11
time step continuity errors : sum local = 5.36456e-06, global = 2.3147e-06, cumulative = 5.25438e-06
smoothSolver:  Solving for epsilon, Initial residual = 0.00241112, Final residual = 8.79148e-07, No Iterations 6
smoothSolver:  Solving for k, Initial residual = 0.00362529, Final residual = 5.54423e-07, No Iterations 7
ExecutionTime = 1.07 s  ClockTime = 1 s

Time = 426

smoothSolver:  Solving for Ux, Initial residual = 0.00203831, Final residual = 3.18547e-07, No Iterations 7
smoothSolver:  Solving for Uy, Initial residual = 0.0074783, Final residual = 4.05827e-07, No Iterations 8
GAMG:  Solving for p, Initial residual = 0.0092473, Final residual = 6.52982e-07, No Iterations 12
time step continuity errors : sum local = 3.87282e-06, global = -6.90542e-07, cumulative = 4.56383e-06
smoothSolver:  Solving for epsilon, Initial residual = 0.00241047, Final residual = 8.82716e-07, No Iterations 6
smoothSolver:  Solving for k, Initial residual = 0.00363789, Final residual = 5.56766e-07, No Iterations 7
ExecutionTime = 1.11 s  ClockTime = 1 s

Time = 427

smoothSolver:  Solving for Ux, Initial residual = 0.00202661, Final residual = 3.17504e-07, No Iterations 7
smoothSolver:  Solving for Uy, Initial residual = 0.00747131, Final residual = 4.06005e-07, No Iterations 8
GAMG:  Solving for p, Initial residual = 0.00822373, Final residual = 3.41053e-07, No Iterations 13
time step continuity errors : sum local = 2.02204e-06, global = 1.88402e-07, cumulative = 4.75224e-06
smoothSolver:  Solving for epsilon, Initial residual = 0.00241484, Final residual = 8.86199e-07, No Iterations 6
smoothSolver:  Solving for k, Initial residual = 0.00365047, Final residual = 5.59119e-07, No Iterations 7
ExecutionTime = 1.14 s  ClockTime = 1 s

Time = 428

smoothSolver:  Solving for Ux, Initial residual = 0.00201746, Final residual = 3.16432e-07, No Iterations 7
smoothSolver:  Solving for Uy, Initial residual = 0.00747144, Final residual = 4.0616e-07, No Iterations 8
GAMG:  Solving for p, Initial residual = 0.00899971, Final residual = 3.28488e-07, No Iterations 13
time step continuity errors : sum local = 1.94528e-06, global = 1.95446e-07, cumulative = 4.94768e-06
smoothSolver:  Solving for epsilon, Initial residual = 0.00242093, Final residual = 8.88543e-07, No Iterations 6
smoothSolver:  Solving for k, Initial residual = 0.00366256, Final residual = 5.61534e-07, No Iterations 7
ExecutionTime = 1.17 s  ClockTime = 1 s

Time = 429

smoothSolver:  Solving for Ux, Initial residual = 0.00200656, Final residual = 3.15439e-07, No Iterations 7
smoothSolver:  Solving for Uy, Initial residual = 0.00746394, Final residual = 4.06333e-07, No Iterations 8
GAMG:  Solving for p, Initial residual = 0.00856431, Final residual = 9.76978e-07, No Iterations 12
time step continuity errors : sum local = 5.80437e-06, global = -1.00891e-06, cumulative = 3.93877e-06
smoothSolver:  Solving for epsilon, Initial residual = 0.00241727, Final residual = 8.91675e-07, No Iterations 6
smoothSolver:  Solving for k, Initial residual = 0.00367277, Final residual = 5.63632e-07, No Iterations 7
ExecutionTime = 1.2 s  ClockTime = 1 s

Time = 430

smoothSolver:  Solving for Ux, Initial residual = 0.00199364, Final residual = 3.14326e-07, No Iterations 7
smoothSolver:  Solving for Uy, Initial residual = 0.00745732, Final residual = 4.06528e-07, No Iterations 8
GAMG:  Solving for p, Initial residual = 0.00781498, Final residual = 3.02916e-07, No Iterations 13
time step continuity errors : sum local = 1.80023e-06, global = 2.29163e-07, cumulative = 4.16793e-06
smoothSolver:  Solving for epsilon, Initial residual = 0.00241998, Final residual = 8.94619e-07, No Iterations 6
smoothSolver:  Solving for k, Initial residual = 0.00368318, Final residual = 5.65733e-07, No Iterations 7
ExecutionTime = 1.24 s  ClockTime = 1 s

Time = 431

smoothSolver:  Solving for Ux, Initial residual = 0.00198311, Final residual = 3.13183e-07, No Iterations 7
smoothSolver:  Solving for Uy, Initial residual = 0.00745327, Final residual = 4.06674e-07, No Iterations 8
GAMG:  Solving for p, Initial residual = 0.00887755, Final residual = 9.75959e-07, No Iterations 12
time step continuity errors : sum local = 5.7952e-06, global = -9.89796e-07, cumulative = 3.17814e-06
smoothSolver:  Solving for epsilon, Initial residual = 0.00242048, Final residual = 8.96363e-07, No Iterations 6
smoothSolver:  Solving for k, Initial residual = 0.00369299, Final residual = 5.67879e-07, No Iterations 7
ExecutionTime = 1.27 s  ClockTime = 1 s

Time = 432

smoothSolver:  Solving for Ux, Initial residual = 0.00197176, Final residual = 3.12092e-07, No Iterations 7
smoothSolver:  Solving for Uy, Initial residual = 0.0074443, Final residual = 4.06806e-07, No Iterations 8
GAMG:  Solving for p, Initial residual = 0.00775778, Final residual = 3.16702e-07, No Iterations 13
time step continuity errors : sum local = 1.8859e-06, global = 2.32125e-07, cumulative = 3.41026e-06
smoothSolver:  Solving for epsilon, Initial residual = 0.00241499, Final residual = 8.98792e-07, No Iterations 6
smoothSolver:  Solving for k, Initial residual = 0.00370164, Final residual = 5.69819e-07, No Iterations 7
ExecutionTime = 1.31 s  ClockTime = 1 s

Time = 433

smoothSolver:  Solving for Ux, Initial residual = 0.0019602, Final residual = 3.10981e-07, No Iterations 7
smoothSolver:  Solving for Uy, Initial residual = 0.00743833, Final residual = 4.06968e-07, No Iterations 8
GAMG:  Solving for p, Initial residual = 0.008022, Final residual = 3.28482e-07, No Iterations 13
time step continuity errors : sum local = 1.95934e-06, global = 2.38531e-07, cumulative = 3.64879e-06
smoothSolver:  Solving for epsilon, Initial residual = 0.00241788, Final residual = 9.01482e-07, No Iterations 6
smoothSolver:  Solving for k, Initial residual = 0.00370962, Final residual = 5.71659e-07, No Iterations 7
ExecutionTime = 1.34 s  ClockTime = 1 s

Time = 434

smoothSolver:  Solving for Ux, Initial residual = 0.00195069, Final residual = 3.09787e-07, No Iterations 7
smoothSolver:  Solving for Uy, Initial residual = 0.00743899, Final residual = 4.07142e-07, No Iterations 8
GAMG:  Solving for p, Initial residual = 0.00807939, Final residual = 9.77311e-07, No Iterations 12
time step continuity errors : sum local = 5.81268e-06, global = -9.12803e-07, cumulative = 2.73599e-06
smoothSolver:  Solving for epsilon, Initial residual = 0.00242077, Final residual = 9.0256e-07, No Iterations 6
smoothSolver:  Solving for k, Initial residual = 0.00371866, Final residual = 5.73558e-07, No Iterations 7
ExecutionTime = 1.38 s  ClockTime = 1 s

Time = 435

smoothSolver:  Solving for Ux, Initial residual = 0.00193987, Final residual = 3.08667e-07, No Iterations 7
smoothSolver:  Solving for Uy, Initial residual = 0.00742914, Final residual = 4.0726e-07, No Iterations 8
GAMG:  Solving for p, Initial residual = 0.00816704, Final residual = 3.36282e-07, No Iterations 13
time step continuity errors : sum local = 2.00889e-06, global = 2.44314e-07, cumulative = 2.98031e-06
smoothSolver:  Solving for epsilon, Initial residual = 0.00241665, Final residual = 9.04527e-07, No Iterations 6
smoothSolver:  Solving for k, Initial residual = 0.00372621, Final residual = 5.75331e-07, No Iterations 7
ExecutionTime = 1.41 s  ClockTime = 1 s

Time = 436

smoothSolver:  Solving for Ux, Initial residual = 0.00192875, Final residual = 3.07466e-07, No Iterations 7
smoothSolver:  Solving for Uy, Initial residual = 0.00742263, Final residual = 4.073e-07, No Iterations 8
GAMG:  Solving for p, Initial residual = 0.00823321, Final residual = 9.90841e-07, No Iterations 12
time step continuity errors : sum local = 5.92545e-06, global = -1.09283e-06, cumulative = 1.88748e-06
smoothSolver:  Solving for epsilon, Initial residual = 0.00241745, Final residual = 9.06507e-07, No Iterations 6
smoothSolver:  Solving for k, Initial residual = 0.00373215, Final residual = 5.77019e-07, No Iterations 7
ExecutionTime = 1.45 s  ClockTime = 1 s

Time = 437

smoothSolver:  Solving for Ux, Initial residual = 0.00191799, Final residual = 3.06261e-07, No Iterations 7
smoothSolver:  Solving for Uy, Initial residual = 0.00741787, Final residual = 4.07378e-07, No Iterations 8
GAMG:  Solving for p, Initial residual = 0.00799617, Final residual = 9.29781e-07, No Iterations 12
time step continuity errors : sum local = 5.55288e-06, global = -9.53017e-07, cumulative = 9.34461e-07
smoothSolver:  Solving for epsilon, Initial residual = 0.00241544, Final residual = 9.07697e-07, No Iterations 6
smoothSolver:  Solving for k, Initial residual = 0.0037385, Final residual = 5.78663e-07, No Iterations 7
ExecutionTime = 1.48 s  ClockTime = 1 s

Time = 438

smoothSolver:  Solving for Ux, Initial residual = 0.00190716, Final residual = 3.05049e-07, No Iterations 7
smoothSolver:  Solving for Uy, Initial residual = 0.00740906, Final residual = 4.07482e-07, No Iterations 8
GAMG:  Solving for p, Initial residual = 0.00700766, Final residual = 9.86317e-07, No Iterations 11
time step continuity errors : sum local = 5.90535e-06, global = 6.31607e-07, cumulative = 1.56607e-06
smoothSolver:  Solving for epsilon, Initial residual = 0.00240684, Final residual = 9.09155e-07, No Iterations 6
smoothSolver:  Solving for k, Initial residual = 0.00374394, Final residual = 5.80221e-07, No Iterations 7
ExecutionTime = 1.51 s  ClockTime = 1 s

Time = 439

smoothSolver:  Solving for Ux, Initial residual = 0.00189622, Final residual = 3.0385e-07, No Iterations 7
smoothSolver:  Solving for Uy, Initial residual = 0.00740119, Final residual = 4.0745e-07, No Iterations 8
GAMG:  Solving for p, Initial residual = 0.00779725, Final residual = 8.92858e-07, No Iterations 12
time step continuity errors : sum local = 5.35539e-06, global = -1.08605e-06, cumulative = 4.80015e-07
smoothSolver:  Solving for epsilon, Initial residual = 0.00240571, Final residual = 9.10328e-07, No Iterations 6
smoothSolver:  Solving for k, Initial residual = 0.00374899, Final residual = 5.81781e-07, No Iterations 7
ExecutionTime = 1.54 s  ClockTime = 1 s

Time = 440

smoothSolver:  Solving for Ux, Initial residual = 0.00188626, Final residual = 3.026e-07, No Iterations 7
smoothSolver:  Solving for Uy, Initial residual = 0.00739571, Final residual = 4.0742e-07, No Iterations 8
GAMG:  Solving for p, Initial residual = 0.00757986, Final residual = 9.41242e-07, No Iterations 11
time step continuity errors : sum local = 5.64252e-06, global = 6.67338e-07, cumulative = 1.14735e-06
smoothSolver:  Solving for epsilon, Initial residual = 0.00240351, Final residual = 9.11508e-07, No Iterations 6
smoothSolver:  Solving for k, Initial residual = 0.00375363, Final residual = 5.8323e-07, No Iterations 7
ExecutionTime = 1.57 s  ClockTime = 1 s

Time = 441

smoothSolver:  Solving for Ux, Initial residual = 0.00187567, Final residual = 3.01317e-07, No Iterations 7
smoothSolver:  Solving for Uy, Initial residual = 0.00738666, Final residual = 4.07452e-07, No Iterations 8
GAMG:  Solving for p, Initial residual = 0.0068789, Final residual = 9.52322e-07, No Iterations 11
time step continuity errors : sum local = 5.72008e-06, global = 7.10519e-07, cumulative = 1.85787e-06
smoothSolver:  Solving for epsilon, Initial residual = 0.00240189, Final residual = 9.12285e-07, No Iterations 6
smoothSolver:  Solving for k, Initial residual = 0.00375938, Final residual = 5.84637e-07, No Iterations 7
ExecutionTime = 1.61 s  ClockTime = 1 s

Time = 442

smoothSolver:  Solving for Ux, Initial residual = 0.00186477, Final residual = 9.98383e-07, No Iterations 6
smoothSolver:  Solving for Uy, Initial residual = 0.00737929, Final residual = 4.07415e-07, No Iterations 8
GAMG:  Solving for p, Initial residual = 0.00841159, Final residual = 9.44104e-07, No Iterations 11
time step continuity errors : sum local = 5.6831e-06, global = 7.14963e-07, cumulative = 2.57283e-06
smoothSolver:  Solving for epsilon, Initial residual = 0.00239674, Final residual = 9.13309e-07, No Iterations 6
smoothSolver:  Solving for k, Initial residual = 0.00376193, Final residual = 5.86005e-07, No Iterations 7
ExecutionTime = 1.64 s  ClockTime = 1 s

Time = 443

smoothSolver:  Solving for Ux, Initial residual = 0.00185501, Final residual = 9.9387e-07, No Iterations 6
smoothSolver:  Solving for Uy, Initial residual = 0.00737237, Final residual = 4.07306e-07, No Iterations 8
GAMG:  Solving for p, Initial residual = 0.00747509, Final residual = 9.25219e-07, No Iterations 11
time step continuity errors : sum local = 5.56702e-06, global = 7.56466e-07, cumulative = 3.3293e-06
smoothSolver:  Solving for epsilon, Initial residual = 0.00239178, Final residual = 9.14121e-07, No Iterations 6
smoothSolver:  Solving for k, Initial residual = 0.00376545, Final residual = 5.87359e-07, No Iterations 7
ExecutionTime = 1.67 s  ClockTime = 1 s

Time = 444

smoothSolver:  Solving for Ux, Initial residual = 0.00184444, Final residual = 9.89444e-07, No Iterations 6
smoothSolver:  Solving for Uy, Initial residual = 0.00736149, Final residual = 4.07222e-07, No Iterations 8
GAMG:  Solving for p, Initial residual = 0.00699871, Final residual = 9.46065e-07, No Iterations 11
time step continuity errors : sum local = 5.7023e-06, global = 7.81133e-07, cumulative = 4.11043e-06
smoothSolver:  Solving for epsilon, Initial residual = 0.00238832, Final residual = 9.1487e-07, No Iterations 6
smoothSolver:  Solving for k, Initial residual = 0.00376906, Final residual = 5.8856e-07, No Iterations 7
ExecutionTime = 1.71 s  ClockTime = 1 s

Time = 445

smoothSolver:  Solving for Ux, Initial residual = 0.0018334, Final residual = 9.85026e-07, No Iterations 6
smoothSolver:  Solving for Uy, Initial residual = 0.00735347, Final residual = 4.07118e-07, No Iterations 8
GAMG:  Solving for p, Initial residual = 0.00692974, Final residual = 8.36458e-07, No Iterations 12
time step continuity errors : sum local = 5.05167e-06, global = -9.62661e-07, cumulative = 3.14777e-06
smoothSolver:  Solving for epsilon, Initial residual = 0.002387, Final residual = 9.15365e-07, No Iterations 6
smoothSolver:  Solving for k, Initial residual = 0.0037719, Final residual = 5.89841e-07, No Iterations 7
ExecutionTime = 1.74 s  ClockTime = 1 s

Time = 446

smoothSolver:  Solving for Ux, Initial residual = 0.00182395, Final residual = 9.80601e-07, No Iterations 6
smoothSolver:  Solving for Uy, Initial residual = 0.00734764, Final residual = 4.07022e-07, No Iterations 8
GAMG:  Solving for p, Initial residual = 0.00756729, Final residual = 9.66519e-07, No Iterations 11
time step continuity errors : sum local = 5.83984e-06, global = 8.10633e-07, cumulative = 3.95841e-06
smoothSolver:  Solving for epsilon, Initial residual = 0.00238353, Final residual = 9.16078e-07, No Iterations 6
smoothSolver:  Solving for k, Initial residual = 0.0037738, Final residual = 5.91021e-07, No Iterations 7
ExecutionTime = 1.77 s  ClockTime = 1 s

Time = 447

smoothSolver:  Solving for Ux, Initial residual = 0.00181435, Final residual = 9.75944e-07, No Iterations 6
smoothSolver:  Solving for Uy, Initial residual = 0.00733748, Final residual = 4.06936e-07, No Iterations 8
GAMG:  Solving for p, Initial residual = 0.00656961, Final residual = 8.52925e-07, No Iterations 12
time step continuity errors : sum local = 5.15954e-06, global = -9.079e-07, cumulative = 3.05051e-06
smoothSolver:  Solving for epsilon, Initial residual = 0.00237812, Final residual = 9.16543e-07, No Iterations 6
smoothSolver:  Solving for k, Initial residual = 0.00377631, Final residual = 5.92095e-07, No Iterations 7
ExecutionTime = 1.81 s  ClockTime = 1 s

Time = 448

smoothSolver:  Solving for Ux, Initial residual = 0.00180347, Final residual = 9.71396e-07, No Iterations 6
smoothSolver:  Solving for Uy, Initial residual = 0.00732878, Final residual = 4.06761e-07, No Iterations 8
GAMG:  Solving for p, Initial residual = 0.00724285, Final residual = 8.12139e-07, No Iterations 12
time step continuity errors : sum local = 4.9225e-06, global = -8.46602e-07, cumulative = 2.2039e-06
smoothSolver:  Solving for epsilon, Initial residual = 0.00237507, Final residual = 9.16829e-07, No Iterations 6
smoothSolver:  Solving for k, Initial residual = 0.00377828, Final residual = 5.9325e-07, No Iterations 7
ExecutionTime = 1.83 s  ClockTime = 1 s

Time = 449

smoothSolver:  Solving for Ux, Initial residual = 0.00179402, Final residual = 9.67025e-07, No Iterations 6
smoothSolver:  Solving for Uy, Initial residual = 0.00732079, Final residual = 4.06608e-07, No Iterations 8
GAMG:  Solving for p, Initial residual = 0.00731968, Final residual = 7.93716e-07, No Iterations 12
time step continuity errors : sum local = 4.81626e-06, global = -7.74288e-07, cumulative = 1.42961e-06
smoothSolver:  Solving for epsilon, Initial residual = 0.00237192, Final residual = 9.17402e-07, No Iterations 6
smoothSolver:  Solving for k, Initial residual = 0.00377896, Final residual = 5.94314e-07, No Iterations 7
ExecutionTime = 1.87 s  ClockTime = 1 s

Time = 450

smoothSolver:  Solving for Ux, Initial residual = 0.00178407, Final residual = 9.6246e-07, No Iterations 6
smoothSolver:  Solving for Uy, Initial residual = 0.00731089, Final residual = 4.06532e-07, No Iterations 8
GAMG:  Solving for p, Initial residual = 0.00674282, Final residual = 9.86765e-07, No Iterations 12
time step continuity errors : sum local = 5.99341e-06, global = -7.34845e-07, cumulative = 6.9477e-07
smoothSolver:  Solving for epsilon, Initial residual = 0.00236692, Final residual = 9.17485e-07, No Iterations 6
smoothSolver:  Solving for k, Initial residual = 0.00378063, Final residual = 5.95311e-07, No Iterations 7
ExecutionTime = 1.9 s  ClockTime = 2 s

Time = 451

smoothSolver:  Solving for Ux, Initial residual = 0.00177353, Final residual = 9.5792e-07, No Iterations 6
smoothSolver:  Solving for Uy, Initial residual = 0.00730297, Final residual = 4.06355e-07, No Iterations 8
GAMG:  Solving for p, Initial residual = 0.00676609, Final residual = 3.1786e-07, No Iterations 13
time step continuity errors : sum local = 1.93424e-06, global = 2.11168e-07, cumulative = 9.05938e-07
smoothSolver:  Solving for epsilon, Initial residual = 0.00236141, Final residual = 9.17931e-07, No Iterations 6
smoothSolver:  Solving for k, Initial residual = 0.00378101, Final residual = 5.96342e-07, No Iterations 7
ExecutionTime = 1.94 s  ClockTime = 2 s

Time = 452

smoothSolver:  Solving for Ux, Initial residual = 0.0017641, Final residual = 9.53444e-07, No Iterations 6
smoothSolver:  Solving for Uy, Initial residual = 0.00729435, Final residual = 4.06153e-07, No Iterations 8
GAMG:  Solving for p, Initial residual = 0.0066683, Final residual = 3.57299e-07, No Iterations 12
time step continuity errors : sum local = 2.1756e-06, global = 3.5092e-07, cumulative = 1.25686e-06
smoothSolver:  Solving for epsilon, Initial residual = 0.0023567, Final residual = 9.18276e-07, No Iterations 6
smoothSolver:  Solving for k, Initial residual = 0.00378128, Final residual = 5.97305e-07, No Iterations 7
ExecutionTime = 1.97 s  ClockTime = 2 s

Time = 453

smoothSolver:  Solving for Ux, Initial residual = 0.0017541, Final residual = 9.48977e-07, No Iterations 6
smoothSolver:  Solving for Uy, Initial residual = 0.00728534, Final residual = 4.06039e-07, No Iterations 8
GAMG:  Solving for p, Initial residual = 0.00674395, Final residual = 4.524e-07, No Iterations 12
time step continuity errors : sum local = 2.75692e-06, global = 1.99499e-07, cumulative = 1.45636e-06
smoothSolver:  Solving for epsilon, Initial residual = 0.00235386, Final residual = 9.18143e-07, No Iterations 6
smoothSolver:  Solving for k, Initial residual = 0.00378235, Final residual = 5.98225e-07, No Iterations 7
ExecutionTime = 2 s  ClockTime = 2 s

Time = 454

smoothSolver:  Solving for Ux, Initial residual = 0.00174535, Final residual = 9.44553e-07, No Iterations 6
smoothSolver:  Solving for Uy, Initial residual = 0.00728073, Final residual = 4.05913e-07, No Iterations 8
GAMG:  Solving for p, Initial residual = 0.00642976, Final residual = 4.27556e-07, No Iterations 12
time step continuity errors : sum local = 2.61291e-06, global = 3.78511e-07, cumulative = 1.83487e-06
smoothSolver:  Solving for epsilon, Initial residual = 0.00234869, Final residual = 9.18564e-07, No Iterations 6
smoothSolver:  Solving for k, Initial residual = 0.00378164, Final residual = 5.99159e-07, No Iterations 7
ExecutionTime = 2.04 s  ClockTime = 2 s

Time = 455

smoothSolver:  Solving for Ux, Initial residual = 0.00173547, Final residual = 9.40093e-07, No Iterations 6
smoothSolver:  Solving for Uy, Initial residual = 0.00727056, Final residual = 4.05737e-07, No Iterations 8
GAMG:  Solving for p, Initial residual = 0.00694896, Final residual = 4.07484e-07, No Iterations 12
time step continuity errors : sum local = 2.493e-06, global = 3.1581e-07, cumulative = 2.15068e-06
smoothSolver:  Solving for epsilon, Initial residual = 0.00234236, Final residual = 9.18681e-07, No Iterations 6
smoothSolver:  Solving for k, Initial residual = 0.00378171, Final residual = 6.00002e-07, No Iterations 7
ExecutionTime = 2.07 s  ClockTime = 2 s

Time = 456

smoothSolver:  Solving for Ux, Initial residual = 0.00172669, Final residual = 9.35622e-07, No Iterations 6
smoothSolver:  Solving for Uy, Initial residual = 0.00726241, Final residual = 4.05607e-07, No Iterations 8
GAMG:  Solving for p, Initial residual = 0.00687684, Final residual = 3.84117e-07, No Iterations 12
time step continuity errors : sum local = 2.35198e-06, global = 4.08701e-07, cumulative = 2.55938e-06
smoothSolver:  Solving for epsilon, Initial residual = 0.00233988, Final residual = 9.18715e-07, No Iterations 6
smoothSolver:  Solving for k, Initial residual = 0.00378124, Final residual = 6.00908e-07, No Iterations 7
ExecutionTime = 2.1 s  ClockTime = 2 s

Time = 457

smoothSolver:  Solving for Ux, Initial residual = 0.00171728, Final residual = 9.31223e-07, No Iterations 6
smoothSolver:  Solving for Uy, Initial residual = 0.00725485, Final residual = 4.05459e-07, No Iterations 8
GAMG:  Solving for p, Initial residual = 0.00712159, Final residual = 4.1195e-07, No Iterations 12
time step continuity errors : sum local = 2.52596e-06, global = 3.16098e-07, cumulative = 2.87548e-06
smoothSolver:  Solving for epsilon, Initial residual = 0.00233226, Final residual = 9.18993e-07, No Iterations 6
smoothSolver:  Solving for k, Initial residual = 0.0037799, Final residual = 6.01705e-07, No Iterations 7
ExecutionTime = 2.14 s  ClockTime = 2 s

Time = 458

smoothSolver:  Solving for Ux, Initial residual = 0.00170853, Final residual = 9.26827e-07, No Iterations 6
smoothSolver:  Solving for Uy, Initial residual = 0.0072502, Final residual = 4.05329e-07, No Iterations 8
GAMG:  Solving for p, Initial residual = 0.00605956, Final residual = 3.3255e-07, No Iterations 12
time step continuity errors : sum local = 2.04236e-06, global = 3.21259e-07, cumulative = 3.19674e-06
smoothSolver:  Solving for epsilon, Initial residual = 0.00232852, Final residual = 9.19071e-07, No Iterations 6
smoothSolver:  Solving for k, Initial residual = 0.00377881, Final residual = 6.02425e-07, No Iterations 7
ExecutionTime = 2.17 s  ClockTime = 2 s

Time = 459

smoothSolver:  Solving for Ux, Initial residual = 0.00170299, Final residual = 9.22439e-07, No Iterations 6
smoothSolver:  Solving for Uy, Initial residual = 0.00725495, Final residual = 4.05187e-07, No Iterations 8
GAMG:  Solving for p, Initial residual = 0.010459, Final residual = 7.85232e-07, No Iterations 12
time step continuity errors : sum local = 4.83675e-06, global = -7.99225e-07, cumulative = 2.39751e-06
smoothSolver:  Solving for epsilon, Initial residual = 0.00234594, Final residual = 9.18784e-07, No Iterations 6
smoothSolver:  Solving for k, Initial residual = 0.00378113, Final residual = 6.03376e-07, No Iterations 7
ExecutionTime = 2.21 s  ClockTime = 2 s

Time = 460

smoothSolver:  Solving for Ux, Initial residual = 0.0016951, Final residual = 9.18314e-07, No Iterations 6
smoothSolver:  Solving for Uy, Initial residual = 0.00724953, Final residual = 4.04999e-07, No Iterations 8
GAMG:  Solving for p, Initial residual = 0.00869314, Final residual = 6.82447e-07, No Iterations 11
time step continuity errors : sum local = 4.20932e-06, global = 2.42293e-07, cumulative = 2.6398e-06
smoothSolver:  Solving for epsilon, Initial residual = 0.00233972, Final residual = 9.19114e-07, No Iterations 6
smoothSolver:  Solving for k, Initial residual = 0.00377731, Final residual = 6.04077e-07, No Iterations 7
ExecutionTime = 2.24 s  ClockTime = 2 s

Time = 461

smoothSolver:  Solving for Ux, Initial residual = 0.0016848, Final residual = 9.1394e-07, No Iterations 6
smoothSolver:  Solving for Uy, Initial residual = 0.00723983, Final residual = 4.04895e-07, No Iterations 8
GAMG:  Solving for p, Initial residual = 0.00728176, Final residual = 7.046e-07, No Iterations 11
time step continuity errors : sum local = 4.34317e-06, global = 2.47882e-07, cumulative = 2.88769e-06
smoothSolver:  Solving for epsilon, Initial residual = 0.00233119, Final residual = 9.18994e-07, No Iterations 6
smoothSolver:  Solving for k, Initial residual = 0.00377664, Final residual = 6.04775e-07, No Iterations 7
ExecutionTime = 2.28 s  ClockTime = 2 s

Time = 462

smoothSolver:  Solving for Ux, Initial residual = 0.00167494, Final residual = 9.09419e-07, No Iterations 6
smoothSolver:  Solving for Uy, Initial residual = 0.00722076, Final residual = 4.04813e-07, No Iterations 8
GAMG:  Solving for p, Initial residual = 0.00803833, Final residual = 6.96713e-07, No Iterations 11
time step continuity errors : sum local = 4.30053e-06, global = 3.62386e-07, cumulative = 3.25007e-06
smoothSolver:  Solving for epsilon, Initial residual = 0.0023271, Final residual = 9.19073e-07, No Iterations 6
smoothSolver:  Solving for k, Initial residual = 0.00377454, Final residual = 6.05587e-07, No Iterations 7
ExecutionTime = 2.3 s  ClockTime = 2 s

Time = 463

smoothSolver:  Solving for Ux, Initial residual = 0.0016648, Final residual = 9.05165e-07, No Iterations 6
smoothSolver:  Solving for Uy, Initial residual = 0.00721261, Final residual = 4.0468e-07, No Iterations 8
GAMG:  Solving for p, Initial residual = 0.00663722, Final residual = 4.30557e-07, No Iterations 12
time step continuity errors : sum local = 2.65912e-06, global = 3.55486e-07, cumulative = 3.60556e-06
smoothSolver:  Solving for epsilon, Initial residual = 0.00232255, Final residual = 9.19173e-07, No Iterations 6
smoothSolver:  Solving for k, Initial residual = 0.00377343, Final residual = 6.06285e-07, No Iterations 7
ExecutionTime = 2.34 s  ClockTime = 2 s

Time = 464

smoothSolver:  Solving for Ux, Initial residual = 0.00165601, Final residual = 9.01036e-07, No Iterations 6
smoothSolver:  Solving for Uy, Initial residual = 0.00720675, Final residual = 4.04589e-07, No Iterations 8
GAMG:  Solving for p, Initial residual = 0.00606376, Final residual = 3.81089e-07, No Iterations 12
time step continuity errors : sum local = 2.36023e-06, global = 4.55151e-07, cumulative = 4.06071e-06
smoothSolver:  Solving for epsilon, Initial residual = 0.00232034, Final residual = 9.19421e-07, No Iterations 6
smoothSolver:  Solving for k, Initial residual = 0.00377145, Final residual = 6.06993e-07, No Iterations 7
ExecutionTime = 2.37 s  ClockTime = 2 s

Time = 465

smoothSolver:  Solving for Ux, Initial residual = 0.0016474, Final residual = 8.9686e-07, No Iterations 6
smoothSolver:  Solving for Uy, Initial residual = 0.00719717, Final residual = 4.04483e-07, No Iterations 8
GAMG:  Solving for p, Initial residual = 0.00548946, Final residual = 3.61981e-07, No Iterations 12
time step continuity errors : sum local = 2.24352e-06, global = 4.60593e-07, cumulative = 4.5213e-06
smoothSolver:  Solving for epsilon, Initial residual = 0.00232173, Final residual = 9.19482e-07, No Iterations 6
smoothSolver:  Solving for k, Initial residual = 0.0037702, Final residual = 6.07728e-07, No Iterations 7
ExecutionTime = 2.4 s  ClockTime = 2 s

Time = 466

smoothSolver:  Solving for Ux, Initial residual = 0.00164021, Final residual = 8.92808e-07, No Iterations 6
smoothSolver:  Solving for Uy, Initial residual = 0.00719399, Final residual = 4.0452e-07, No Iterations 8
GAMG:  Solving for p, Initial residual = 0.00655611, Final residual = 3.87146e-07, No Iterations 12
time step continuity errors : sum local = 2.4057e-06, global = 4.06394e-07, cumulative = 4.92769e-06
smoothSolver:  Solving for epsilon, Initial residual = 0.00231404, Final residual = 9.19975e-07, No Iterations 6
smoothSolver:  Solving for k, Initial residual = 0.00376702, Final residual = 6.08422e-07, No Iterations 7
ExecutionTime = 2.44 s  ClockTime = 2 s

Time = 467

smoothSolver:  Solving for Ux, Initial residual = 0.00163191, Final residual = 8.8864e-07, No Iterations 6
smoothSolver:  Solving for Uy, Initial residual = 0.00719203, Final residual = 4.04516e-07, No Iterations 8
GAMG:  Solving for p, Initial residual = 0.00582557, Final residual = 3.47395e-07, No Iterations 12
time step continuity errors : sum local = 2.15856e-06, global = 3.85025e-07, cumulative = 5.31272e-06
smoothSolver:  Solving for epsilon, Initial residual = 0.00230759, Final residual = 9.20173e-07, No Iterations 6
smoothSolver:  Solving for k, Initial residual = 0.00376488, Final residual = 6.09114e-07, No Iterations 7
ExecutionTime = 2.47 s  ClockTime = 2 s

Time = 468

smoothSolver:  Solving for Ux, Initial residual = 0.001624, Final residual = 8.84663e-07, No Iterations 6
smoothSolver:  Solving for Uy, Initial residual = 0.0071875, Final residual = 4.04491e-07, No Iterations 8
GAMG:  Solving for p, Initial residual = 0.00573621, Final residual = 3.81607e-07, No Iterations 12
time step continuity errors : sum local = 2.37594e-06, global = 4.65884e-07, cumulative = 5.7786e-06
smoothSolver:  Solving for epsilon, Initial residual = 0.00230358, Final residual = 9.20364e-07, No Iterations 6
smoothSolver:  Solving for k, Initial residual = 0.00376159, Final residual = 6.09681e-07, No Iterations 7
ExecutionTime = 2.5 s  ClockTime = 2 s

Time = 469

smoothSolver:  Solving for Ux, Initial residual = 0.00162023, Final residual = 8.80773e-07, No Iterations 6
smoothSolver:  Solving for Uy, Initial residual = 0.00719902, Final residual = 4.04577e-07, No Iterations 8
GAMG:  Solving for p, Initial residual = 0.00926268, Final residual = 7.79343e-07, No Iterations 12
time step continuity errors : sum local = 4.86343e-06, global = 7.76675e-07, cumulative = 6.55528e-06
smoothSolver:  Solving for epsilon, Initial residual = 0.00231509, Final residual = 9.20499e-07, No Iterations 6
smoothSolver:  Solving for k, Initial residual = 0.00376085, Final residual = 6.10451e-07, No Iterations 7
ExecutionTime = 2.53 s  ClockTime = 2 s

Time = 470

smoothSolver:  Solving for Ux, Initial residual = 0.00161096, Final residual = 8.76929e-07, No Iterations 6
smoothSolver:  Solving for Uy, Initial residual = 0.00718589, Final residual = 4.04636e-07, No Iterations 8
GAMG:  Solving for p, Initial residual = 0.00654505, Final residual = 4.19785e-07, No Iterations 12
time step continuity errors : sum local = 2.62498e-06, global = 4.24236e-07, cumulative = 6.97951e-06
smoothSolver:  Solving for epsilon, Initial residual = 0.00230086, Final residual = 9.20535e-07, No Iterations 6
smoothSolver:  Solving for k, Initial residual = 0.00375611, Final residual = 6.11108e-07, No Iterations 7
ExecutionTime = 2.57 s  ClockTime = 2 s

Time = 471

smoothSolver:  Solving for Ux, Initial residual = 0.00160145, Final residual = 8.73094e-07, No Iterations 6
smoothSolver:  Solving for Uy, Initial residual = 0.00718374, Final residual = 4.04723e-07, No Iterations 8
GAMG:  Solving for p, Initial residual = 0.0062215, Final residual = 3.71912e-07, No Iterations 12
time step continuity errors : sum local = 2.32631e-06, global = 3.13709e-07, cumulative = 7.29322e-06
smoothSolver:  Solving for epsilon, Initial residual = 0.00228896, Final residual = 9.20511e-07, No Iterations 6
smoothSolver:  Solving for k, Initial residual = 0.00375235, Final residual = 6.11622e-07, No Iterations 7
ExecutionTime = 2.61 s  ClockTime = 2 s

Time = 472

smoothSolver:  Solving for Ux, Initial residual = 0.00159345, Final residual = 8.69145e-07, No Iterations 6
smoothSolver:  Solving for Uy, Initial residual = 0.00717645, Final residual = 4.04915e-07, No Iterations 8
GAMG:  Solving for p, Initial residual = 0.00672677, Final residual = 4.21656e-07, No Iterations 12
time step continuity errors : sum local = 2.63981e-06, global = 3.61503e-07, cumulative = 7.65473e-06
smoothSolver:  Solving for epsilon, Initial residual = 0.00228376, Final residual = 9.20606e-07, No Iterations 6
smoothSolver:  Solving for k, Initial residual = 0.00374861, Final residual = 6.12364e-07, No Iterations 7
ExecutionTime = 2.64 s  ClockTime = 2 s

Time = 473

smoothSolver:  Solving for Ux, Initial residual = 0.00158662, Final residual = 8.65386e-07, No Iterations 6
smoothSolver:  Solving for Uy, Initial residual = 0.00717554, Final residual = 4.05043e-07, No Iterations 8
GAMG:  Solving for p, Initial residual = 0.00578995, Final residual = 3.77914e-07, No Iterations 12
time step continuity errors : sum local = 2.37162e-06, global = 3.34678e-07, cumulative = 7.9894e-06
smoothSolver:  Solving for epsilon, Initial residual = 0.00227966, Final residual = 9.20886e-07, No Iterations 6
smoothSolver:  Solving for k, Initial residual = 0.00374557, Final residual = 6.1302e-07, No Iterations 7
ExecutionTime = 2.68 s  ClockTime = 2 s

Time = 474

smoothSolver:  Solving for Ux, Initial residual = 0.00157876, Final residual = 8.61839e-07, No Iterations 6
smoothSolver:  Solving for Uy, Initial residual = 0.0071722, Final residual = 4.05143e-07, No Iterations 8
GAMG:  Solving for p, Initial residual = 0.00513148, Final residual = 3.93128e-07, No Iterations 12
time step continuity errors : sum local = 2.46973e-06, global = 3.41378e-07, cumulative = 8.33078e-06
smoothSolver:  Solving for epsilon, Initial residual = 0.00227127, Final residual = 9.21152e-07, No Iterations 6
smoothSolver:  Solving for k, Initial residual = 0.00374167, Final residual = 6.13564e-07, No Iterations 7
ExecutionTime = 2.7 s  ClockTime = 2 s

Time = 475

smoothSolver:  Solving for Ux, Initial residual = 0.00157152, Final residual = 8.58284e-07, No Iterations 6
smoothSolver:  Solving for Uy, Initial residual = 0.00717108, Final residual = 4.05401e-07, No Iterations 8
GAMG:  Solving for p, Initial residual = 0.00524699, Final residual = 4.48214e-07, No Iterations 12
time step continuity errors : sum local = 2.81967e-06, global = 4.11868e-07, cumulative = 8.74265e-06
smoothSolver:  Solving for epsilon, Initial residual = 0.00226449, Final residual = 9.21481e-07, No Iterations 6
smoothSolver:  Solving for k, Initial residual = 0.00373722, Final residual = 6.14244e-07, No Iterations 7
ExecutionTime = 2.74 s  ClockTime = 2 s

Time = 476

smoothSolver:  Solving for Ux, Initial residual = 0.0015659, Final residual = 8.54829e-07, No Iterations 6
smoothSolver:  Solving for Uy, Initial residual = 0.00717528, Final residual = 4.05639e-07, No Iterations 8
GAMG:  Solving for p, Initial residual = 0.00526785, Final residual = 4.47015e-07, No Iterations 12
time step continuity errors : sum local = 2.81855e-06, global = 3.85646e-07, cumulative = 9.1283e-06
smoothSolver:  Solving for epsilon, Initial residual = 0.00225572, Final residual = 9.21939e-07, No Iterations 6
smoothSolver:  Solving for k, Initial residual = 0.00373329, Final residual = 6.14892e-07, No Iterations 7
ExecutionTime = 2.77 s  ClockTime = 2 s

Time = 477

smoothSolver:  Solving for Ux, Initial residual = 0.00155932, Final residual = 8.51506e-07, No Iterations 6
smoothSolver:  Solving for Uy, Initial residual = 0.00717754, Final residual = 4.05855e-07, No Iterations 8
GAMG:  Solving for p, Initial residual = 0.00516675, Final residual = 4.40852e-07, No Iterations 12
time step continuity errors : sum local = 2.78221e-06, global = 3.935e-07, cumulative = 9.5218e-06
smoothSolver:  Solving for epsilon, Initial residual = 0.00224835, Final residual = 9.22253e-07, No Iterations 6
smoothSolver:  Solving for k, Initial residual = 0.00372943, Final residual = 6.15496e-07, No Iterations 7
ExecutionTime = 2.8 s  ClockTime = 2 s

Time = 478

smoothSolver:  Solving for Ux, Initial residual = 0.00155275, Final residual = 8.4818e-07, No Iterations 6
smoothSolver:  Solving for Uy, Initial residual = 0.00718121, Final residual = 4.06152e-07, No Iterations 8
GAMG:  Solving for p, Initial residual = 0.00523415, Final residual = 4.51821e-07, No Iterations 12
time step continuity errors : sum local = 2.85512e-06, global = 3.94052e-07, cumulative = 9.91585e-06
smoothSolver:  Solving for epsilon, Initial residual = 0.00224519, Final residual = 9.22633e-07, No Iterations 6
smoothSolver:  Solving for k, Initial residual = 0.00372462, Final residual = 6.16044e-07, No Iterations 7
ExecutionTime = 2.84 s  ClockTime = 2 s

Time = 479

smoothSolver:  Solving for Ux, Initial residual = 0.00155098, Final residual = 8.45064e-07, No Iterations 6
smoothSolver:  Solving for Uy, Initial residual = 0.00720566, Final residual = 4.06464e-07, No Iterations 8
GAMG:  Solving for p, Initial residual = 0.00937743, Final residual = 8.09869e-07, No Iterations 12
time step continuity errors : sum local = 5.13751e-06, global = 6.42909e-07, cumulative = 1.05588e-05
smoothSolver:  Solving for epsilon, Initial residual = 0.00225209, Final residual = 9.2309e-07, No Iterations 6
smoothSolver:  Solving for k, Initial residual = 0.00372265, Final residual = 6.16736e-07, No Iterations 7
ExecutionTime = 2.87 s  ClockTime = 2 s

Time = 480

smoothSolver:  Solving for Ux, Initial residual = 0.00154256, Final residual = 8.41935e-07, No Iterations 6
smoothSolver:  Solving for Uy, Initial residual = 0.00719674, Final residual = 4.0674e-07, No Iterations 8
GAMG:  Solving for p, Initial residual = 0.00650269, Final residual = 6.21761e-07, No Iterations 12
time step continuity errors : sum local = 3.94603e-06, global = 5.90695e-07, cumulative = 1.11495e-05
smoothSolver:  Solving for epsilon, Initial residual = 0.0022411, Final residual = 9.23182e-07, No Iterations 6
smoothSolver:  Solving for k, Initial residual = 0.00371683, Final residual = 6.17353e-07, No Iterations 7
ExecutionTime = 2.91 s  ClockTime = 3 s

Time = 481

smoothSolver:  Solving for Ux, Initial residual = 0.00153588, Final residual = 8.38873e-07, No Iterations 6
smoothSolver:  Solving for Uy, Initial residual = 0.00719841, Final residual = 4.07117e-07, No Iterations 8
GAMG:  Solving for p, Initial residual = 0.00608107, Final residual = 5.94449e-07, No Iterations 12
time step continuity errors : sum local = 3.77589e-06, global = 5.46503e-07, cumulative = 1.1696e-05
smoothSolver:  Solving for epsilon, Initial residual = 0.00222814, Final residual = 9.23542e-07, No Iterations 6
smoothSolver:  Solving for k, Initial residual = 0.00371172, Final residual = 6.1782e-07, No Iterations 7
ExecutionTime = 2.94 s  ClockTime = 3 s

Time = 482

smoothSolver:  Solving for Ux, Initial residual = 0.0015297, Final residual = 8.35874e-07, No Iterations 6
smoothSolver:  Solving for Uy, Initial residual = 0.00719756, Final residual = 4.07468e-07, No Iterations 8
GAMG:  Solving for p, Initial residual = 0.00665036, Final residual = 4.5461e-07, No Iterations 12
time step continuity errors : sum local = 2.89073e-06, global = 4.27894e-07, cumulative = 1.21238e-05
smoothSolver:  Solving for epsilon, Initial residual = 0.0022224, Final residual = 9.2393e-07, No Iterations 6
smoothSolver:  Solving for k, Initial residual = 0.00370725, Final residual = 6.18522e-07, No Iterations 7
ExecutionTime = 2.97 s  ClockTime = 3 s

Time = 483

smoothSolver:  Solving for Ux, Initial residual = 0.0015232, Final residual = 8.32993e-07, No Iterations 6
smoothSolver:  Solving for Uy, Initial residual = 0.00719993, Final residual = 4.07819e-07, No Iterations 8
GAMG:  Solving for p, Initial residual = 0.0059538, Final residual = 4.37045e-07, No Iterations 12
time step continuity errors : sum local = 2.78364e-06, global = 2.9654e-07, cumulative = 1.24204e-05
smoothSolver:  Solving for epsilon, Initial residual = 0.00221831, Final residual = 9.24247e-07, No Iterations 6
smoothSolver:  Solving for k, Initial residual = 0.0037027, Final residual = 6.19172e-07, No Iterations 7
ExecutionTime = 3 s  ClockTime = 3 s

Time = 484

smoothSolver:  Solving for Ux, Initial residual = 0.00151732, Final residual = 8.30105e-07, No Iterations 6
smoothSolver:  Solving for Uy, Initial residual = 0.00720496, Final residual = 4.08182e-07, No Iterations 8
GAMG:  Solving for p, Initial residual = 0.00527142, Final residual = 4.45366e-07, No Iterations 12
time step continuity errors : sum local = 2.84083e-06, global = 4.11115e-07, cumulative = 1.28315e-05
smoothSolver:  Solving for epsilon, Initial residual = 0.0022102, Final residual = 9.24892e-07, No Iterations 6
smoothSolver:  Solving for k, Initial residual = 0.00369763, Final residual = 6.19663e-07, No Iterations 7
ExecutionTime = 3.04 s  ClockTime = 3 s

Time = 485

smoothSolver:  Solving for Ux, Initial residual = 0.00151227, Final residual = 8.27499e-07, No Iterations 6
smoothSolver:  Solving for Uy, Initial residual = 0.00721008, Final residual = 4.08609e-07, No Iterations 8
GAMG:  Solving for p, Initial residual = 0.00503302, Final residual = 5.27612e-07, No Iterations 12
time step continuity errors : sum local = 3.37194e-06, global = 4.61504e-07, cumulative = 1.3293e-05
smoothSolver:  Solving for epsilon, Initial residual = 0.00220499, Final residual = 9.25523e-07, No Iterations 6
smoothSolver:  Solving for k, Initial residual = 0.00369256, Final residual = 6.20327e-07, No Iterations 7
ExecutionTime = 3.07 s  ClockTime = 3 s

Time = 486

smoothSolver:  Solving for Ux, Initial residual = 0.00150739, Final residual = 8.24789e-07, No Iterations 6
smoothSolver:  Solving for Uy, Initial residual = 0.00721758, Final residual = 4.09046e-07, No Iterations 8
GAMG:  Solving for p, Initial residual = 0.00501165, Final residual = 5.56122e-07, No Iterations 12
time step continuity errors : sum local = 3.55867e-06, global = 4.87401e-07, cumulative = 1.37804e-05
smoothSolver:  Solving for epsilon, Initial residual = 0.00219799, Final residual = 9.25991e-07, No Iterations 6
smoothSolver:  Solving for k, Initial residual = 0.00368785, Final residual = 6.20986e-07, No Iterations 7
ExecutionTime = 3.1 s  ClockTime = 3 s

Time = 487

smoothSolver:  Solving for Ux, Initial residual = 0.00150315, Final residual = 8.22139e-07, No Iterations 6
smoothSolver:  Solving for Uy, Initial residual = 0.00722683, Final residual = 4.09496e-07, No Iterations 8
GAMG:  Solving for p, Initial residual = 0.00488369, Final residual = 5.26212e-07, No Iterations 12
time step continuity errors : sum local = 3.37163e-06, global = 4.69084e-07, cumulative = 1.42495e-05
smoothSolver:  Solving for epsilon, Initial residual = 0.00218859, Final residual = 9.26715e-07, No Iterations 6
smoothSolver:  Solving for k, Initial residual = 0.0036829, Final residual = 6.21501e-07, No Iterations 7
ExecutionTime = 3.14 s  ClockTime = 3 s

Time = 488

smoothSolver:  Solving for Ux, Initial residual = 0.00149865, Final residual = 8.19711e-07, No Iterations 6
smoothSolver:  Solving for Uy, Initial residual = 0.00723653, Final residual = 4.09946e-07, No Iterations 8
GAMG:  Solving for p, Initial residual = 0.00483976, Final residual = 4.85793e-07, No Iterations 12
time step continuity errors : sum local = 3.11826e-06, global = 4.48099e-07, cumulative = 1.46976e-05
smoothSolver:  Solving for epsilon, Initial residual = 0.0021798, Final residual = 9.27295e-07, No Iterations 6
smoothSolver:  Solving for k, Initial residual = 0.0036771, Final residual = 6.22106e-07, No Iterations 7
ExecutionTime = 3.17 s  ClockTime = 3 s

Time = 489

smoothSolver:  Solving for Ux, Initial residual = 0.00149437, Final residual = 8.17277e-07, No Iterations 6
smoothSolver:  Solving for Uy, Initial residual = 0.00724509, Final residual = 4.10415e-07, No Iterations 8
GAMG:  Solving for p, Initial residual = 0.00460809, Final residual = 4.77658e-07, No Iterations 12
time step continuity errors : sum local = 3.07035e-06, global = 4.54209e-07, cumulative = 1.51518e-05
smoothSolver:  Solving for epsilon, Initial residual = 0.00217335, Final residual = 9.27778e-07, No Iterations 6
smoothSolver:  Solving for k, Initial residual = 0.00367185, Final residual = 6.22748e-07, No Iterations 7
ExecutionTime = 3.2 s  ClockTime = 3 s

Time = 490

smoothSolver:  Solving for Ux, Initial residual = 0.00149041, Final residual = 8.14825e-07, No Iterations 6
smoothSolver:  Solving for Uy, Initial residual = 0.0072542, Final residual = 4.10947e-07, No Iterations 8
GAMG:  Solving for p, Initial residual = 0.00521278, Final residual = 4.76699e-07, No Iterations 12
time step continuity errors : sum local = 3.0688e-06, global = 4.46127e-07, cumulative = 1.55979e-05
smoothSolver:  Solving for epsilon, Initial residual = 0.00216528, Final residual = 9.28397e-07, No Iterations 6
smoothSolver:  Solving for k, Initial residual = 0.0036666, Final residual = 6.23298e-07, No Iterations 7
ExecutionTime = 3.23 s  ClockTime = 3 s

Time = 491

smoothSolver:  Solving for Ux, Initial residual = 0.00148649, Final residual = 8.12632e-07, No Iterations 6
smoothSolver:  Solving for Uy, Initial residual = 0.00726419, Final residual = 4.11418e-07, No Iterations 8
GAMG:  Solving for p, Initial residual = 0.00521993, Final residual = 4.45812e-07, No Iterations 12
time step continuity errors : sum local = 2.87559e-06, global = 4.1306e-07, cumulative = 1.6011e-05
smoothSolver:  Solving for epsilon, Initial residual = 0.00215814, Final residual = 9.28946e-07, No Iterations 6
smoothSolver:  Solving for k, Initial residual = 0.00366014, Final residual = 6.23821e-07, No Iterations 7
ExecutionTime = 3.26 s  ClockTime = 3 s

Time = 492

smoothSolver:  Solving for Ux, Initial residual = 0.00148238, Final residual = 8.10338e-07, No Iterations 6
smoothSolver:  Solving for Uy, Initial residual = 0.00727379, Final residual = 4.11947e-07, No Iterations 8
GAMG:  Solving for p, Initial residual = 0.00514419, Final residual = 4.38716e-07, No Iterations 12
time step continuity errors : sum local = 2.83343e-06, global = 4.10739e-07, cumulative = 1.64217e-05
smoothSolver:  Solving for epsilon, Initial residual = 0.00214972, Final residual = 9.29407e-07, No Iterations 6
smoothSolver:  Solving for k, Initial residual = 0.00365472, Final residual = 6.2449e-07, No Iterations 7
ExecutionTime = 3.3 s  ClockTime = 3 s

Time = 493

smoothSolver:  Solving for Ux, Initial residual = 0.00147831, Final residual = 8.08159e-07, No Iterations 6
smoothSolver:  Solving for Uy, Initial residual = 0.00728465, Final residual = 4.12552e-07, No Iterations 8
GAMG:  Solving for p, Initial residual = 0.00485428, Final residual = 4.32033e-07, No Iterations 12
time step continuity errors : sum local = 2.79396e-06, global = 4.0851e-07, cumulative = 1.68302e-05
smoothSolver:  Solving for epsilon, Initial residual = 0.00214033, Final residual = 9.3008e-07, No Iterations 6
smoothSolver:  Solving for k, Initial residual = 0.00364863, Final residual = 6.25046e-07, No Iterations 7
ExecutionTime = 3.34 s  ClockTime = 3 s

Time = 494

smoothSolver:  Solving for Ux, Initial residual = 0.00147469, Final residual = 8.06016e-07, No Iterations 6
smoothSolver:  Solving for Uy, Initial residual = 0.00729546, Final residual = 4.13008e-07, No Iterations 8
GAMG:  Solving for p, Initial residual = 0.00471936, Final residual = 4.0975e-07, No Iterations 12
time step continuity errors : sum local = 2.65441e-06, global = 3.7581e-07, cumulative = 1.7206e-05
smoothSolver:  Solving for epsilon, Initial residual = 0.00213127, Final residual = 9.3058e-07, No Iterations 6
smoothSolver:  Solving for k, Initial residual = 0.00364198, Final residual = 6.25491e-07, No Iterations 7
ExecutionTime = 3.37 s  ClockTime = 3 s

Time = 495

smoothSolver:  Solving for Ux, Initial residual = 0.00147119, Final residual = 8.03862e-07, No Iterations 6
smoothSolver:  Solving for Uy, Initial residual = 0.00730628, Final residual = 4.13611e-07, No Iterations 8
GAMG:  Solving for p, Initial residual = 0.0049688, Final residual = 3.98396e-07, No Iterations 12
time step continuity errors : sum local = 2.5842e-06, global = 3.54024e-07, cumulative = 1.75601e-05
smoothSolver:  Solving for epsilon, Initial residual = 0.00212224, Final residual = 9.31119e-07, No Iterations 6
smoothSolver:  Solving for k, Initial residual = 0.00363632, Final residual = 6.26171e-07, No Iterations 7
ExecutionTime = 3.4 s  ClockTime = 3 s

Time = 496

smoothSolver:  Solving for Ux, Initial residual = 0.00146771, Final residual = 8.01873e-07, No Iterations 6
smoothSolver:  Solving for Uy, Initial residual = 0.00731908, Final residual = 4.14204e-07, No Iterations 8
GAMG:  Solving for p, Initial residual = 0.00476706, Final residual = 3.88296e-07, No Iterations 12
time step continuity errors : sum local = 2.52254e-06, global = 3.22354e-07, cumulative = 1.78824e-05
smoothSolver:  Solving for epsilon, Initial residual = 0.00211464, Final residual = 9.31846e-07, No Iterations 6
smoothSolver:  Solving for k, Initial residual = 0.00363032, Final residual = 6.26744e-07, No Iterations 7
ExecutionTime = 3.43 s  ClockTime = 3 s

Time = 497

smoothSolver:  Solving for Ux, Initial residual = 0.00146455, Final residual = 8.0006e-07, No Iterations 6
smoothSolver:  Solving for Uy, Initial residual = 0.00733167, Final residual = 4.14676e-07, No Iterations 8
GAMG:  Solving for p, Initial residual = 0.00482736, Final residual = 3.91067e-07, No Iterations 12
time step continuity errors : sum local = 2.54518e-06, global = 3.0281e-07, cumulative = 1.81852e-05
smoothSolver:  Solving for epsilon, Initial residual = 0.0021083, Final residual = 9.32423e-07, No Iterations 6
smoothSolver:  Solving for k, Initial residual = 0.00362368, Final residual = 6.27156e-07, No Iterations 7
ExecutionTime = 3.47 s  ClockTime = 3 s

Time = 498

smoothSolver:  Solving for Ux, Initial residual = 0.00146126, Final residual = 7.98331e-07, No Iterations 6
smoothSolver:  Solving for Uy, Initial residual = 0.00734377, Final residual = 4.15358e-07, No Iterations 8
GAMG:  Solving for p, Initial residual = 0.00475797, Final residual = 3.8943e-07, No Iterations 12
time step continuity errors : sum local = 2.5378e-06, global = 3.08272e-07, cumulative = 1.84935e-05
smoothSolver:  Solving for epsilon, Initial residual = 0.00210193, Final residual = 9.33083e-07, No Iterations 6
smoothSolver:  Solving for k, Initial residual = 0.00361811, Final residual = 6.27848e-07, No Iterations 7
ExecutionTime = 3.5 s  ClockTime = 3 s

Time = 499

smoothSolver:  Solving for Ux, Initial residual = 0.0014583, Final residual = 7.96587e-07, No Iterations 6
smoothSolver:  Solving for Uy, Initial residual = 0.00735797, Final residual = 4.15921e-07, No Iterations 8
GAMG:  Solving for p, Initial residual = 0.00471106, Final residual = 3.88886e-07, No Iterations 12
time step continuity errors : sum local = 2.53774e-06, global = 3.08372e-07, cumulative = 1.88019e-05
smoothSolver:  Solving for epsilon, Initial residual = 0.0020966, Final residual = 9.33857e-07, No Iterations 6
smoothSolver:  Solving for k, Initial residual = 0.00361252, Final residual = 6.28396e-07, No Iterations 7
ExecutionTime = 3.53 s  ClockTime = 3 s

Time = 500

smoothSolver:  Solving for Ux, Initial residual = 0.00145542, Final residual = 7.95039e-07, No Iterations 6
smoothSolver:  Solving for Uy, Initial residual = 0.00737185, Final residual = 4.16465e-07, No Iterations 8
GAMG:  Solving for p, Initial residual = 0.00475146, Final residual = 3.97918e-07, No Iterations 12
time step continuity errors : sum local = 2.60133e-06, global = 2.98517e-07, cumulative = 1.91004e-05
smoothSolver:  Solving for epsilon, Initial residual = 0.00209175, Final residual = 9.34561e-07, No Iterations 6
smoothSolver:  Solving for k, Initial residual = 0.00360599, Final residual = 6.28811e-07, No Iterations 7
ExecutionTime = 3.6 s  ClockTime = 3 s

streamLine streamlines write:
    seeded 10 particles
    Tracks:10
    Total samples:9760
    Writing data to "/media/suraj/My4TBHD1/git_workspace/ANL/RLLib_Theta/openfoam/multiple_velocity_dynamic_relaxation/postProcessing/sets/streamlines/500"
End

