/*---------------------------------------------------------------------------*\
| =========                 |                                                 |
| \\      /  F ield         | OpenFOAM: The Open Source CFD Toolbox           |
|  \\    /   O peration     | Version:  5.x                                   |
|   \\  /    A nd           | Web:      www.OpenFOAM.org                      |
|    \\/     M anipulation  |                                                 |
\*---------------------------------------------------------------------------*/
Build  : 5.x-7f7d351b741b
Exec   : simpleFoam
Date   : Jun 21 2020
Time   : 16:08:38
Host   : "suraj-MS-7B06"
PID    : 10009
I/O    : uncollated
Case   : /media/suraj/My4TBHD1/git_workspace/ANL/RLLib_Theta/openfoam/multiple_velocity_dynamic_relaxation
nProcs : 1
sigFpe : Enabling floating point exception trapping (FOAM_SIGFPE).
fileModificationChecking : Monitoring run-time modified files using timeStampMaster (fileModificationSkew 10)
allowSystemOperations : Allowing user-supplied system call operations

// * * * * * * * * * * * * * * * * * * * * * * * * * * * * * * * * * * * * * //
Create time

Create mesh for time = 300


SIMPLE: convergence criteria
    field p	 tolerance 0.01
    field U	 tolerance 0.001
    field "(k|epsilon|omega|f|v2)"	 tolerance 0.001

Reading field p

Reading field U

Reading/calculating face flux field phi

Selecting incompressible transport model Newtonian
Selecting turbulence model type RAS
Selecting RAS turbulence model kEpsilon
RAS
{
    RASModel        kEpsilon;
    turbulence      on;
    printCoeffs     on;
    Cmu             0.09;
    C1              1.44;
    C2              1.92;
    C3              0;
    sigmak          1;
    sigmaEps        1.3;
}

No MRF models present

No finite volume options present


Starting time loop

streamLine streamlines:
    automatic track length specified through number of sub cycles : 5

Time = 301

smoothSolver:  Solving for Ux, Initial residual = 0.00192407, Final residual = 3.9173e-07, No Iterations 5
smoothSolver:  Solving for Uy, Initial residual = 0.00801839, Final residual = 4.00758e-07, No Iterations 6
GAMG:  Solving for p, Initial residual = 0.033137, Final residual = 3.78998e-07, No Iterations 13
time step continuity errors : sum local = 1.73154e-06, global = 3.28258e-07, cumulative = 3.28258e-07
smoothSolver:  Solving for epsilon, Initial residual = 0.0016838, Final residual = 5.3611e-07, No Iterations 6
smoothSolver:  Solving for k, Initial residual = 0.00258011, Final residual = 3.62861e-07, No Iterations 7
ExecutionTime = 0.26 s  ClockTime = 0 s

Time = 302

smoothSolver:  Solving for Ux, Initial residual = 0.00192025, Final residual = 3.91938e-07, No Iterations 5
smoothSolver:  Solving for Uy, Initial residual = 0.00796151, Final residual = 3.97868e-07, No Iterations 6
GAMG:  Solving for p, Initial residual = 0.0226138, Final residual = 4.97805e-07, No Iterations 13
time step continuity errors : sum local = 2.26915e-06, global = 2.90339e-07, cumulative = 6.18597e-07
smoothSolver:  Solving for epsilon, Initial residual = 0.00169385, Final residual = 5.41798e-07, No Iterations 6
smoothSolver:  Solving for k, Initial residual = 0.00258972, Final residual = 3.64904e-07, No Iterations 7
ExecutionTime = 0.29 s  ClockTime = 0 s

Time = 303

smoothSolver:  Solving for Ux, Initial residual = 0.00191331, Final residual = 3.90818e-07, No Iterations 5
smoothSolver:  Solving for Uy, Initial residual = 0.00789636, Final residual = 3.95595e-07, No Iterations 6
GAMG:  Solving for p, Initial residual = 0.0227379, Final residual = 6.81897e-07, No Iterations 12
time step continuity errors : sum local = 3.12453e-06, global = 4.10333e-07, cumulative = 1.02893e-06
smoothSolver:  Solving for epsilon, Initial residual = 0.00171752, Final residual = 5.47654e-07, No Iterations 6
smoothSolver:  Solving for k, Initial residual = 0.00260382, Final residual = 3.66982e-07, No Iterations 7
ExecutionTime = 0.32 s  ClockTime = 0 s

Time = 304

smoothSolver:  Solving for Ux, Initial residual = 0.00190693, Final residual = 3.89485e-07, No Iterations 5
smoothSolver:  Solving for Uy, Initial residual = 0.00784087, Final residual = 3.93737e-07, No Iterations 6
GAMG:  Solving for p, Initial residual = 0.0196787, Final residual = 6.13385e-07, No Iterations 12
time step continuity errors : sum local = 2.82661e-06, global = 3.63281e-07, cumulative = 1.39221e-06
smoothSolver:  Solving for epsilon, Initial residual = 0.00173914, Final residual = 5.53551e-07, No Iterations 6
smoothSolver:  Solving for k, Initial residual = 0.00261923, Final residual = 3.69153e-07, No Iterations 7
ExecutionTime = 0.36 s  ClockTime = 0 s

Time = 305

smoothSolver:  Solving for Ux, Initial residual = 0.00190345, Final residual = 3.88782e-07, No Iterations 5
smoothSolver:  Solving for Uy, Initial residual = 0.00780325, Final residual = 3.92018e-07, No Iterations 6
GAMG:  Solving for p, Initial residual = 0.0170691, Final residual = 8.94465e-07, No Iterations 10
time step continuity errors : sum local = 4.13006e-06, global = 8.87562e-07, cumulative = 2.27977e-06
smoothSolver:  Solving for epsilon, Initial residual = 0.00176007, Final residual = 5.59433e-07, No Iterations 6
smoothSolver:  Solving for k, Initial residual = 0.00263731, Final residual = 3.71336e-07, No Iterations 7
ExecutionTime = 0.39 s  ClockTime = 0 s

Time = 306

smoothSolver:  Solving for Ux, Initial residual = 0.00189727, Final residual = 3.88579e-07, No Iterations 5
smoothSolver:  Solving for Uy, Initial residual = 0.00774821, Final residual = 3.9009e-07, No Iterations 6
GAMG:  Solving for p, Initial residual = 0.0197123, Final residual = 8.48172e-07, No Iterations 11
time step continuity errors : sum local = 3.92323e-06, global = -7.74867e-07, cumulative = 1.50491e-06
smoothSolver:  Solving for epsilon, Initial residual = 0.00178662, Final residual = 5.65346e-07, No Iterations 6
smoothSolver:  Solving for k, Initial residual = 0.00265534, Final residual = 3.73571e-07, No Iterations 7
ExecutionTime = 0.41 s  ClockTime = 0 s

Time = 307

smoothSolver:  Solving for Ux, Initial residual = 0.00189318, Final residual = 3.88376e-07, No Iterations 5
smoothSolver:  Solving for Uy, Initial residual = 0.00769757, Final residual = 3.88003e-07, No Iterations 6
GAMG:  Solving for p, Initial residual = 0.0159062, Final residual = 3.86157e-07, No Iterations 13
time step continuity errors : sum local = 1.78935e-06, global = 2.71519e-07, cumulative = 1.77643e-06
smoothSolver:  Solving for epsilon, Initial residual = 0.00178932, Final residual = 5.71393e-07, No Iterations 6
smoothSolver:  Solving for k, Initial residual = 0.00266925, Final residual = 3.75807e-07, No Iterations 7
ExecutionTime = 0.44 s  ClockTime = 0 s

Time = 308

smoothSolver:  Solving for Ux, Initial residual = 0.00188723, Final residual = 3.87774e-07, No Iterations 5
smoothSolver:  Solving for Uy, Initial residual = 0.00764173, Final residual = 3.85974e-07, No Iterations 6
GAMG:  Solving for p, Initial residual = 0.0181314, Final residual = 3.9602e-07, No Iterations 13
time step continuity errors : sum local = 1.84151e-06, global = 2.36729e-07, cumulative = 2.01315e-06
smoothSolver:  Solving for epsilon, Initial residual = 0.00181163, Final residual = 5.77313e-07, No Iterations 6
smoothSolver:  Solving for k, Initial residual = 0.00268589, Final residual = 3.78149e-07, No Iterations 7
ExecutionTime = 0.48 s  ClockTime = 0 s

Time = 309

smoothSolver:  Solving for Ux, Initial residual = 0.00188204, Final residual = 3.86971e-07, No Iterations 5
smoothSolver:  Solving for Uy, Initial residual = 0.00758998, Final residual = 3.8405e-07, No Iterations 6
GAMG:  Solving for p, Initial residual = 0.0164522, Final residual = 9.83996e-07, No Iterations 11
time step continuity errors : sum local = 4.58984e-06, global = 1.54707e-06, cumulative = 3.56022e-06
smoothSolver:  Solving for epsilon, Initial residual = 0.00182862, Final residual = 5.83174e-07, No Iterations 6
smoothSolver:  Solving for k, Initial residual = 0.00270179, Final residual = 3.80396e-07, No Iterations 7
ExecutionTime = 0.52 s  ClockTime = 0 s

Time = 310

smoothSolver:  Solving for Ux, Initial residual = 0.00187965, Final residual = 3.86335e-07, No Iterations 5
smoothSolver:  Solving for Uy, Initial residual = 0.00755364, Final residual = 3.8225e-07, No Iterations 6
GAMG:  Solving for p, Initial residual = 0.0152106, Final residual = 7.16655e-07, No Iterations 11
time step continuity errors : sum local = 3.3449e-06, global = 7.08896e-07, cumulative = 4.26912e-06
smoothSolver:  Solving for epsilon, Initial residual = 0.00184439, Final residual = 5.88846e-07, No Iterations 6
smoothSolver:  Solving for k, Initial residual = 0.00271811, Final residual = 3.8259e-07, No Iterations 7
ExecutionTime = 0.55 s  ClockTime = 0 s

Time = 311

smoothSolver:  Solving for Ux, Initial residual = 0.00187418, Final residual = 3.8587e-07, No Iterations 5
smoothSolver:  Solving for Uy, Initial residual = 0.00750182, Final residual = 3.8055e-07, No Iterations 6
GAMG:  Solving for p, Initial residual = 0.0181894, Final residual = 9.76932e-07, No Iterations 11
time step continuity errors : sum local = 4.56689e-06, global = 1.39387e-06, cumulative = 5.66299e-06
smoothSolver:  Solving for epsilon, Initial residual = 0.0018659, Final residual = 5.94429e-07, No Iterations 6
smoothSolver:  Solving for k, Initial residual = 0.00273511, Final residual = 3.84808e-07, No Iterations 7
ExecutionTime = 0.58 s  ClockTime = 0 s

Time = 312

smoothSolver:  Solving for Ux, Initial residual = 0.00187026, Final residual = 3.85506e-07, No Iterations 5
smoothSolver:  Solving for Uy, Initial residual = 0.00745802, Final residual = 3.78731e-07, No Iterations 6
GAMG:  Solving for p, Initial residual = 0.014343, Final residual = 5.9458e-07, No Iterations 13
time step continuity errors : sum local = 2.7851e-06, global = 4.41008e-07, cumulative = 6.10399e-06
smoothSolver:  Solving for epsilon, Initial residual = 0.00186867, Final residual = 6.00025e-07, No Iterations 6
smoothSolver:  Solving for k, Initial residual = 0.00274909, Final residual = 3.87065e-07, No Iterations 7
ExecutionTime = 0.61 s  ClockTime = 0 s

Time = 313

smoothSolver:  Solving for Ux, Initial residual = 0.00186479, Final residual = 3.84991e-07, No Iterations 5
smoothSolver:  Solving for Uy, Initial residual = 0.00740889, Final residual = 3.76952e-07, No Iterations 6
GAMG:  Solving for p, Initial residual = 0.0166148, Final residual = 5.66468e-07, No Iterations 13
time step continuity errors : sum local = 2.66168e-06, global = 4.09552e-07, cumulative = 6.51355e-06
smoothSolver:  Solving for epsilon, Initial residual = 0.00188838, Final residual = 6.05491e-07, No Iterations 6
smoothSolver:  Solving for k, Initial residual = 0.00276432, Final residual = 3.89221e-07, No Iterations 7
ExecutionTime = 0.65 s  ClockTime = 1 s

Time = 314

smoothSolver:  Solving for Ux, Initial residual = 0.00186036, Final residual = 3.84362e-07, No Iterations 5
smoothSolver:  Solving for Uy, Initial residual = 0.00736353, Final residual = 3.75156e-07, No Iterations 6
GAMG:  Solving for p, Initial residual = 0.0152309, Final residual = 4.24361e-07, No Iterations 13
time step continuity errors : sum local = 1.99931e-06, global = 2.89027e-07, cumulative = 6.80257e-06
smoothSolver:  Solving for epsilon, Initial residual = 0.00190553, Final residual = 6.10878e-07, No Iterations 6
smoothSolver:  Solving for k, Initial residual = 0.00277865, Final residual = 3.91354e-07, No Iterations 7
ExecutionTime = 0.68 s  ClockTime = 1 s

Time = 315

smoothSolver:  Solving for Ux, Initial residual = 0.00185904, Final residual = 3.8382e-07, No Iterations 5
smoothSolver:  Solving for Uy, Initial residual = 0.00733188, Final residual = 3.73466e-07, No Iterations 6
GAMG:  Solving for p, Initial residual = 0.0165167, Final residual = 9.3795e-07, No Iterations 12
time step continuity errors : sum local = 4.42038e-06, global = -8.28614e-07, cumulative = 5.97396e-06
smoothSolver:  Solving for epsilon, Initial residual = 0.00191951, Final residual = 6.15957e-07, No Iterations 6
smoothSolver:  Solving for k, Initial residual = 0.00279296, Final residual = 3.9346e-07, No Iterations 7
ExecutionTime = 0.71 s  ClockTime = 1 s

Time = 316

smoothSolver:  Solving for Ux, Initial residual = 0.00185373, Final residual = 3.83324e-07, No Iterations 5
smoothSolver:  Solving for Uy, Initial residual = 0.00728279, Final residual = 3.71858e-07, No Iterations 6
GAMG:  Solving for p, Initial residual = 0.0177399, Final residual = 9.73998e-07, No Iterations 12
time step continuity errors : sum local = 4.59897e-06, global = -9.58962e-07, cumulative = 5.015e-06
smoothSolver:  Solving for epsilon, Initial residual = 0.00193567, Final residual = 6.20898e-07, No Iterations 6
smoothSolver:  Solving for k, Initial residual = 0.00280753, Final residual = 3.95554e-07, No Iterations 7
ExecutionTime = 0.75 s  ClockTime = 1 s

Time = 317

smoothSolver:  Solving for Ux, Initial residual = 0.00185037, Final residual = 3.8292e-07, No Iterations 5
smoothSolver:  Solving for Uy, Initial residual = 0.00724219, Final residual = 3.70174e-07, No Iterations 6
GAMG:  Solving for p, Initial residual = 0.014236, Final residual = 6.40238e-07, No Iterations 13
time step continuity errors : sum local = 3.03e-06, global = 4.82082e-07, cumulative = 5.49708e-06
smoothSolver:  Solving for epsilon, Initial residual = 0.00194083, Final residual = 6.25807e-07, No Iterations 6
smoothSolver:  Solving for k, Initial residual = 0.00281931, Final residual = 3.97566e-07, No Iterations 7
ExecutionTime = 0.78 s  ClockTime = 1 s

Time = 318

smoothSolver:  Solving for Ux, Initial residual = 0.00184552, Final residual = 3.8247e-07, No Iterations 5
smoothSolver:  Solving for Uy, Initial residual = 0.00719904, Final residual = 3.68513e-07, No Iterations 6
GAMG:  Solving for p, Initial residual = 0.0170229, Final residual = 6.48991e-07, No Iterations 13
time step continuity errors : sum local = 3.07942e-06, global = 4.85399e-07, cumulative = 5.98248e-06
smoothSolver:  Solving for epsilon, Initial residual = 0.00195794, Final residual = 6.30549e-07, No Iterations 6
smoothSolver:  Solving for k, Initial residual = 0.00283191, Final residual = 3.99495e-07, No Iterations 7
ExecutionTime = 0.81 s  ClockTime = 1 s

Time = 319

smoothSolver:  Solving for Ux, Initial residual = 0.00184114, Final residual = 3.8193e-07, No Iterations 5
smoothSolver:  Solving for Uy, Initial residual = 0.00715665, Final residual = 3.66843e-07, No Iterations 6
GAMG:  Solving for p, Initial residual = 0.0146661, Final residual = 5.19932e-07, No Iterations 13
time step continuity errors : sum local = 2.47404e-06, global = 3.74836e-07, cumulative = 6.35731e-06
smoothSolver:  Solving for epsilon, Initial residual = 0.00196548, Final residual = 6.35155e-07, No Iterations 6
smoothSolver:  Solving for k, Initial residual = 0.00284293, Final residual = 4.01453e-07, No Iterations 7
ExecutionTime = 0.85 s  ClockTime = 1 s

Time = 320

smoothSolver:  Solving for Ux, Initial residual = 0.00183922, Final residual = 3.81428e-07, No Iterations 5
smoothSolver:  Solving for Uy, Initial residual = 0.00712589, Final residual = 3.65265e-07, No Iterations 6
GAMG:  Solving for p, Initial residual = 0.0144626, Final residual = 3.82136e-07, No Iterations 13
time step continuity errors : sum local = 1.81875e-06, global = 2.81119e-07, cumulative = 6.63843e-06
smoothSolver:  Solving for epsilon, Initial residual = 0.00197672, Final residual = 6.39433e-07, No Iterations 6
smoothSolver:  Solving for k, Initial residual = 0.00285478, Final residual = 4.03325e-07, No Iterations 7
ExecutionTime = 0.88 s  ClockTime = 1 s

Time = 321

smoothSolver:  Solving for Ux, Initial residual = 0.001835, Final residual = 3.80964e-07, No Iterations 5
smoothSolver:  Solving for Uy, Initial residual = 0.00708236, Final residual = 3.63731e-07, No Iterations 6
GAMG:  Solving for p, Initial residual = 0.0179646, Final residual = 3.84227e-07, No Iterations 13
time step continuity errors : sum local = 1.83078e-06, global = 2.71947e-07, cumulative = 6.91038e-06
smoothSolver:  Solving for epsilon, Initial residual = 0.00199249, Final residual = 6.43498e-07, No Iterations 6
smoothSolver:  Solving for k, Initial residual = 0.00286698, Final residual = 4.05153e-07, No Iterations 7
ExecutionTime = 0.91 s  ClockTime = 1 s

Time = 322

smoothSolver:  Solving for Ux, Initial residual = 0.00183203, Final residual = 3.80584e-07, No Iterations 5
smoothSolver:  Solving for Uy, Initial residual = 0.00704413, Final residual = 3.62155e-07, No Iterations 6
GAMG:  Solving for p, Initial residual = 0.0130827, Final residual = 5.7949e-07, No Iterations 13
time step continuity errors : sum local = 2.76829e-06, global = 4.32922e-07, cumulative = 7.3433e-06
smoothSolver:  Solving for epsilon, Initial residual = 0.00198915, Final residual = 6.47568e-07, No Iterations 6
smoothSolver:  Solving for k, Initial residual = 0.00287565, Final residual = 4.0693e-07, No Iterations 7
ExecutionTime = 0.95 s  ClockTime = 1 s

Time = 323

smoothSolver:  Solving for Ux, Initial residual = 0.00182702, Final residual = 3.80211e-07, No Iterations 5
smoothSolver:  Solving for Uy, Initial residual = 0.00700275, Final residual = 3.6057e-07, No Iterations 6
GAMG:  Solving for p, Initial residual = 0.0157323, Final residual = 6.18045e-07, No Iterations 13
time step continuity errors : sum local = 2.96071e-06, global = 4.58675e-07, cumulative = 7.80198e-06
smoothSolver:  Solving for epsilon, Initial residual = 0.00200406, Final residual = 6.51426e-07, No Iterations 6
smoothSolver:  Solving for k, Initial residual = 0.00288587, Final residual = 4.08637e-07, No Iterations 7
ExecutionTime = 0.98 s  ClockTime = 1 s

Time = 324

smoothSolver:  Solving for Ux, Initial residual = 0.0018237, Final residual = 3.79762e-07, No Iterations 5
smoothSolver:  Solving for Uy, Initial residual = 0.00696516, Final residual = 3.59009e-07, No Iterations 6
GAMG:  Solving for p, Initial residual = 0.014987, Final residual = 5.06202e-07, No Iterations 13
time step continuity errors : sum local = 2.42981e-06, global = 3.65989e-07, cumulative = 8.16797e-06
smoothSolver:  Solving for epsilon, Initial residual = 0.0020102, Final residual = 6.55058e-07, No Iterations 6
smoothSolver:  Solving for k, Initial residual = 0.0028944, Final residual = 4.10274e-07, No Iterations 7
ExecutionTime = 1.02 s  ClockTime = 1 s

Time = 325

smoothSolver:  Solving for Ux, Initial residual = 0.00182218, Final residual = 3.79313e-07, No Iterations 5
smoothSolver:  Solving for Uy, Initial residual = 0.00693682, Final residual = 3.57498e-07, No Iterations 6
GAMG:  Solving for p, Initial residual = 0.0134406, Final residual = 4.14819e-07, No Iterations 13
time step continuity errors : sum local = 1.99193e-06, global = 3.05867e-07, cumulative = 8.47383e-06
smoothSolver:  Solving for epsilon, Initial residual = 0.0020138, Final residual = 6.58397e-07, No Iterations 6
smoothSolver:  Solving for k, Initial residual = 0.00290291, Final residual = 4.1188e-07, No Iterations 7
ExecutionTime = 1.06 s  ClockTime = 1 s

Time = 326

smoothSolver:  Solving for Ux, Initial residual = 0.00181765, Final residual = 3.78872e-07, No Iterations 5
smoothSolver:  Solving for Uy, Initial residual = 0.00689529, Final residual = 3.56062e-07, No Iterations 6
GAMG:  Solving for p, Initial residual = 0.0169584, Final residual = 4.63512e-07, No Iterations 13
time step continuity errors : sum local = 2.22855e-06, global = 3.36758e-07, cumulative = 8.81059e-06
smoothSolver:  Solving for epsilon, Initial residual = 0.00202614, Final residual = 6.61521e-07, No Iterations 6
smoothSolver:  Solving for k, Initial residual = 0.0029126, Final residual = 4.13501e-07, No Iterations 7
ExecutionTime = 1.09 s  ClockTime = 1 s

Time = 327

smoothSolver:  Solving for Ux, Initial residual = 0.00181524, Final residual = 3.78552e-07, No Iterations 5
smoothSolver:  Solving for Uy, Initial residual = 0.00686074, Final residual = 3.5456e-07, No Iterations 6
GAMG:  Solving for p, Initial residual = 0.012825, Final residual = 5.36833e-07, No Iterations 13
time step continuity errors : sum local = 2.58762e-06, global = 4.04647e-07, cumulative = 9.21524e-06
smoothSolver:  Solving for epsilon, Initial residual = 0.00202287, Final residual = 6.64701e-07, No Iterations 6
smoothSolver:  Solving for k, Initial residual = 0.00291878, Final residual = 4.15028e-07, No Iterations 7
ExecutionTime = 1.12 s  ClockTime = 1 s

Time = 328

smoothSolver:  Solving for Ux, Initial residual = 0.00181084, Final residual = 3.78223e-07, No Iterations 5
smoothSolver:  Solving for Uy, Initial residual = 0.00682205, Final residual = 3.5306e-07, No Iterations 6
GAMG:  Solving for p, Initial residual = 0.0148984, Final residual = 5.83653e-07, No Iterations 13
time step continuity errors : sum local = 2.82084e-06, global = 4.33806e-07, cumulative = 9.64904e-06
smoothSolver:  Solving for epsilon, Initial residual = 0.00203203, Final residual = 6.67549e-07, No Iterations 6
smoothSolver:  Solving for k, Initial residual = 0.00292639, Final residual = 4.16429e-07, No Iterations 7
ExecutionTime = 1.16 s  ClockTime = 1 s

Time = 329

smoothSolver:  Solving for Ux, Initial residual = 0.00180744, Final residual = 3.77859e-07, No Iterations 5
smoothSolver:  Solving for Uy, Initial residual = 0.00678598, Final residual = 3.51553e-07, No Iterations 6
GAMG:  Solving for p, Initial residual = 0.0138548, Final residual = 4.84705e-07, No Iterations 13
time step continuity errors : sum local = 2.34848e-06, global = 3.55175e-07, cumulative = 1.00042e-05
smoothSolver:  Solving for epsilon, Initial residual = 0.00203504, Final residual = 6.70197e-07, No Iterations 6
smoothSolver:  Solving for k, Initial residual = 0.0029322, Final residual = 4.17819e-07, No Iterations 7
ExecutionTime = 1.19 s  ClockTime = 1 s

Time = 330

smoothSolver:  Solving for Ux, Initial residual = 0.00180661, Final residual = 3.77542e-07, No Iterations 5
smoothSolver:  Solving for Uy, Initial residual = 0.00676076, Final residual = 3.50156e-07, No Iterations 6
GAMG:  Solving for p, Initial residual = 0.0132916, Final residual = 4.10456e-07, No Iterations 13
time step continuity errors : sum local = 1.98824e-06, global = 3.04348e-07, cumulative = 1.03086e-05
smoothSolver:  Solving for epsilon, Initial residual = 0.0020352, Final residual = 6.72602e-07, No Iterations 6
smoothSolver:  Solving for k, Initial residual = 0.00293901, Final residual = 4.19253e-07, No Iterations 7
ExecutionTime = 1.23 s  ClockTime = 1 s

Time = 331

smoothSolver:  Solving for Ux, Initial residual = 0.00180222, Final residual = 3.77098e-07, No Iterations 5
smoothSolver:  Solving for Uy, Initial residual = 0.00672074, Final residual = 3.48766e-07, No Iterations 6
GAMG:  Solving for p, Initial residual = 0.0161576, Final residual = 4.87615e-07, No Iterations 13
time step continuity errors : sum local = 2.36589e-06, global = 3.57722e-07, cumulative = 1.06663e-05
smoothSolver:  Solving for epsilon, Initial residual = 0.00204475, Final residual = 6.74963e-07, No Iterations 6
smoothSolver:  Solving for k, Initial residual = 0.00294565, Final residual = 4.20613e-07, No Iterations 7
ExecutionTime = 1.26 s  ClockTime = 1 s

Time = 332

smoothSolver:  Solving for Ux, Initial residual = 0.00179972, Final residual = 3.76771e-07, No Iterations 5
smoothSolver:  Solving for Uy, Initial residual = 0.00668895, Final residual = 3.47363e-07, No Iterations 6
GAMG:  Solving for p, Initial residual = 0.0122578, Final residual = 5.01851e-07, No Iterations 13
time step continuity errors : sum local = 2.43944e-06, global = 3.73719e-07, cumulative = 1.104e-05
smoothSolver:  Solving for epsilon, Initial residual = 0.00203795, Final residual = 6.7719e-07, No Iterations 6
smoothSolver:  Solving for k, Initial residual = 0.00294983, Final residual = 4.2189e-07, No Iterations 7
ExecutionTime = 1.29 s  ClockTime = 1 s

Time = 333

smoothSolver:  Solving for Ux, Initial residual = 0.00179572, Final residual = 3.76518e-07, No Iterations 5
smoothSolver:  Solving for Uy, Initial residual = 0.00665153, Final residual = 3.45891e-07, No Iterations 6
GAMG:  Solving for p, Initial residual = 0.0145878, Final residual = 5.58786e-07, No Iterations 13
time step continuity errors : sum local = 2.72552e-06, global = 4.17874e-07, cumulative = 1.14579e-05
smoothSolver:  Solving for epsilon, Initial residual = 0.00204742, Final residual = 6.79191e-07, No Iterations 6
smoothSolver:  Solving for k, Initial residual = 0.00295537, Final residual = 4.23099e-07, No Iterations 7
ExecutionTime = 1.32 s  ClockTime = 1 s

Time = 334

smoothSolver:  Solving for Ux, Initial residual = 0.00179304, Final residual = 3.76288e-07, No Iterations 5
smoothSolver:  Solving for Uy, Initial residual = 0.00661898, Final residual = 3.4449e-07, No Iterations 6
GAMG:  Solving for p, Initial residual = 0.0136814, Final residual = 4.70356e-07, No Iterations 13
time step continuity errors : sum local = 2.29969e-06, global = 3.50402e-07, cumulative = 1.18083e-05
smoothSolver:  Solving for epsilon, Initial residual = 0.00204742, Final residual = 6.81069e-07, No Iterations 6
smoothSolver:  Solving for k, Initial residual = 0.00295902, Final residual = 4.24293e-07, No Iterations 7
ExecutionTime = 1.36 s  ClockTime = 1 s

Time = 335

smoothSolver:  Solving for Ux, Initial residual = 0.00179209, Final residual = 3.76041e-07, No Iterations 5
smoothSolver:  Solving for Uy, Initial residual = 0.0065947, Final residual = 3.43152e-07, No Iterations 6
GAMG:  Solving for p, Initial residual = 0.0123921, Final residual = 4.04941e-07, No Iterations 13
time step continuity errors : sum local = 1.97883e-06, global = 3.02042e-07, cumulative = 1.21103e-05
smoothSolver:  Solving for epsilon, Initial residual = 0.00204338, Final residual = 6.82743e-07, No Iterations 6
smoothSolver:  Solving for k, Initial residual = 0.00296409, Final residual = 4.25541e-07, No Iterations 7
ExecutionTime = 1.39 s  ClockTime = 1 s

Time = 336

smoothSolver:  Solving for Ux, Initial residual = 0.00178784, Final residual = 3.75618e-07, No Iterations 5
smoothSolver:  Solving for Uy, Initial residual = 0.00655722, Final residual = 3.41851e-07, No Iterations 6
GAMG:  Solving for p, Initial residual = 0.0156881, Final residual = 4.86888e-07, No Iterations 13
time step continuity errors : sum local = 2.38246e-06, global = 3.58899e-07, cumulative = 1.24692e-05
smoothSolver:  Solving for epsilon, Initial residual = 0.00205293, Final residual = 6.84278e-07, No Iterations 6
smoothSolver:  Solving for k, Initial residual = 0.00296965, Final residual = 4.26728e-07, No Iterations 7
ExecutionTime = 1.43 s  ClockTime = 1 s

Time = 337

smoothSolver:  Solving for Ux, Initial residual = 0.00178566, Final residual = 3.75296e-07, No Iterations 5
smoothSolver:  Solving for Uy, Initial residual = 0.00652655, Final residual = 3.40469e-07, No Iterations 6
GAMG:  Solving for p, Initial residual = 0.0122801, Final residual = 4.85252e-07, No Iterations 13
time step continuity errors : sum local = 2.38001e-06, global = 3.54908e-07, cumulative = 1.28241e-05
smoothSolver:  Solving for epsilon, Initial residual = 0.00204579, Final residual = 6.8583e-07, No Iterations 6
smoothSolver:  Solving for k, Initial residual = 0.00297158, Final residual = 4.27818e-07, No Iterations 7
ExecutionTime = 1.46 s  ClockTime = 1 s

Time = 338

smoothSolver:  Solving for Ux, Initial residual = 0.00178189, Final residual = 3.75095e-07, No Iterations 5
smoothSolver:  Solving for Uy, Initial residual = 0.00649107, Final residual = 3.39104e-07, No Iterations 6
GAMG:  Solving for p, Initial residual = 0.0132808, Final residual = 5.47347e-07, No Iterations 13
time step continuity errors : sum local = 2.69149e-06, global = 4.10659e-07, cumulative = 1.32348e-05
smoothSolver:  Solving for epsilon, Initial residual = 0.00204936, Final residual = 6.87221e-07, No Iterations 6
smoothSolver:  Solving for k, Initial residual = 0.00297522, Final residual = 4.28825e-07, No Iterations 7
ExecutionTime = 1.5 s  ClockTime = 1 s

Time = 339

smoothSolver:  Solving for Ux, Initial residual = 0.00177908, Final residual = 3.74961e-07, No Iterations 5
smoothSolver:  Solving for Uy, Initial residual = 0.00645974, Final residual = 3.3776e-07, No Iterations 6
GAMG:  Solving for p, Initial residual = 0.0127376, Final residual = 4.63354e-07, No Iterations 13
time step continuity errors : sum local = 2.28348e-06, global = 3.41237e-07, cumulative = 1.3576e-05
smoothSolver:  Solving for epsilon, Initial residual = 0.00204771, Final residual = 6.88514e-07, No Iterations 6
smoothSolver:  Solving for k, Initial residual = 0.00297847, Final residual = 4.29957e-07, No Iterations 7
ExecutionTime = 1.53 s  ClockTime = 1 s

Time = 340

smoothSolver:  Solving for Ux, Initial residual = 0.0017783, Final residual = 3.74778e-07, No Iterations 5
smoothSolver:  Solving for Uy, Initial residual = 0.00643718, Final residual = 3.36507e-07, No Iterations 6
GAMG:  Solving for p, Initial residual = 0.0121784, Final residual = 4.0244e-07, No Iterations 13
time step continuity errors : sum local = 1.98344e-06, global = 2.96665e-07, cumulative = 1.38727e-05
smoothSolver:  Solving for epsilon, Initial residual = 0.0020465, Final residual = 6.89528e-07, No Iterations 6
smoothSolver:  Solving for k, Initial residual = 0.00298264, Final residual = 4.31065e-07, No Iterations 7
ExecutionTime = 1.56 s  ClockTime = 1 s

Time = 341

smoothSolver:  Solving for Ux, Initial residual = 0.00177475, Final residual = 3.74441e-07, No Iterations 5
smoothSolver:  Solving for Uy, Initial residual = 0.00640231, Final residual = 3.35226e-07, No Iterations 6
GAMG:  Solving for p, Initial residual = 0.0158904, Final residual = 4.8821e-07, No Iterations 13
time step continuity errors : sum local = 2.40977e-06, global = 3.60905e-07, cumulative = 1.42336e-05
smoothSolver:  Solving for epsilon, Initial residual = 0.00205193, Final residual = 6.90506e-07, No Iterations 6
smoothSolver:  Solving for k, Initial residual = 0.0029858, Final residual = 4.32044e-07, No Iterations 7
ExecutionTime = 1.6 s  ClockTime = 1 s

Time = 342

smoothSolver:  Solving for Ux, Initial residual = 0.00177211, Final residual = 3.74039e-07, No Iterations 5
smoothSolver:  Solving for Uy, Initial residual = 0.00637243, Final residual = 3.33959e-07, No Iterations 6
GAMG:  Solving for p, Initial residual = 0.0111657, Final residual = 4.86472e-07, No Iterations 13
time step continuity errors : sum local = 2.40444e-06, global = 3.60633e-07, cumulative = 1.45942e-05
smoothSolver:  Solving for epsilon, Initial residual = 0.00204217, Final residual = 6.91481e-07, No Iterations 6
smoothSolver:  Solving for k, Initial residual = 0.00298707, Final residual = 4.3302e-07, No Iterations 7
ExecutionTime = 1.63 s  ClockTime = 2 s

Time = 343

smoothSolver:  Solving for Ux, Initial residual = 0.00176845, Final residual = 3.73911e-07, No Iterations 5
smoothSolver:  Solving for Uy, Initial residual = 0.00633862, Final residual = 3.32638e-07, No Iterations 6
GAMG:  Solving for p, Initial residual = 0.0131419, Final residual = 5.44633e-07, No Iterations 13
time step continuity errors : sum local = 2.69998e-06, global = 4.04539e-07, cumulative = 1.49988e-05
smoothSolver:  Solving for epsilon, Initial residual = 0.00204159, Final residual = 6.92509e-07, No Iterations 6
smoothSolver:  Solving for k, Initial residual = 0.00298993, Final residual = 4.33974e-07, No Iterations 7
ExecutionTime = 1.67 s  ClockTime = 2 s

Time = 344

smoothSolver:  Solving for Ux, Initial residual = 0.00176753, Final residual = 3.73886e-07, No Iterations 5
smoothSolver:  Solving for Uy, Initial residual = 0.00631492, Final residual = 3.31383e-07, No Iterations 6
GAMG:  Solving for p, Initial residual = 0.0100535, Final residual = 3.84411e-07, No Iterations 13
time step continuity errors : sum local = 1.9074e-06, global = 2.74597e-07, cumulative = 1.52734e-05
smoothSolver:  Solving for epsilon, Initial residual = 0.00203404, Final residual = 6.93313e-07, No Iterations 6
smoothSolver:  Solving for k, Initial residual = 0.00299173, Final residual = 4.34948e-07, No Iterations 7
ExecutionTime = 1.7 s  ClockTime = 2 s

Time = 345

smoothSolver:  Solving for Ux, Initial residual = 0.00176384, Final residual = 3.73695e-07, No Iterations 5
smoothSolver:  Solving for Uy, Initial residual = 0.00628204, Final residual = 3.30151e-07, No Iterations 6
GAMG:  Solving for p, Initial residual = 0.0130767, Final residual = 4.48702e-07, No Iterations 13
time step continuity errors : sum local = 2.22922e-06, global = 3.31253e-07, cumulative = 1.56046e-05
smoothSolver:  Solving for epsilon, Initial residual = 0.00203743, Final residual = 6.93966e-07, No Iterations 6
smoothSolver:  Solving for k, Initial residual = 0.00299458, Final residual = 4.35925e-07, No Iterations 7
ExecutionTime = 1.73 s  ClockTime = 2 s

Time = 346

smoothSolver:  Solving for Ux, Initial residual = 0.0017613, Final residual = 3.73271e-07, No Iterations 5
smoothSolver:  Solving for Uy, Initial residual = 0.00625359, Final residual = 3.28964e-07, No Iterations 6
GAMG:  Solving for p, Initial residual = 0.0106136, Final residual = 4.89965e-07, No Iterations 13
time step continuity errors : sum local = 2.43925e-06, global = 3.72912e-07, cumulative = 1.59775e-05
smoothSolver:  Solving for epsilon, Initial residual = 0.00203723, Final residual = 6.94564e-07, No Iterations 6
smoothSolver:  Solving for k, Initial residual = 0.00299627, Final residual = 4.36839e-07, No Iterations 7
ExecutionTime = 1.77 s  ClockTime = 2 s

Time = 347

smoothSolver:  Solving for Ux, Initial residual = 0.00175709, Final residual = 3.73073e-07, No Iterations 5
smoothSolver:  Solving for Uy, Initial residual = 0.00622028, Final residual = 3.27727e-07, No Iterations 6
GAMG:  Solving for p, Initial residual = 0.0121005, Final residual = 5.42137e-07, No Iterations 13
time step continuity errors : sum local = 2.70616e-06, global = 4.01638e-07, cumulative = 1.63792e-05
smoothSolver:  Solving for epsilon, Initial residual = 0.00203692, Final residual = 6.95191e-07, No Iterations 6
smoothSolver:  Solving for k, Initial residual = 0.0029982, Final residual = 4.37637e-07, No Iterations 7
ExecutionTime = 1.8 s  ClockTime = 2 s

Time = 348

smoothSolver:  Solving for Ux, Initial residual = 0.00175608, Final residual = 3.73026e-07, No Iterations 5
smoothSolver:  Solving for Uy, Initial residual = 0.00619786, Final residual = 3.26503e-07, No Iterations 6
GAMG:  Solving for p, Initial residual = 0.00933987, Final residual = 3.97036e-07, No Iterations 13
time step continuity errors : sum local = 1.98274e-06, global = 2.72713e-07, cumulative = 1.66519e-05
smoothSolver:  Solving for epsilon, Initial residual = 0.00202838, Final residual = 6.9573e-07, No Iterations 6
smoothSolver:  Solving for k, Initial residual = 0.00300022, Final residual = 4.38519e-07, No Iterations 7
ExecutionTime = 1.83 s  ClockTime = 2 s

Time = 349

smoothSolver:  Solving for Ux, Initial residual = 0.00175293, Final residual = 3.72889e-07, No Iterations 5
smoothSolver:  Solving for Uy, Initial residual = 0.00616648, Final residual = 3.25323e-07, No Iterations 6
GAMG:  Solving for p, Initial residual = 0.0123305, Final residual = 4.58967e-07, No Iterations 13
time step continuity errors : sum local = 2.29491e-06, global = 3.38197e-07, cumulative = 1.69901e-05
smoothSolver:  Solving for epsilon, Initial residual = 0.00202963, Final residual = 6.9617e-07, No Iterations 6
smoothSolver:  Solving for k, Initial residual = 0.00300335, Final residual = 4.39428e-07, No Iterations 7
ExecutionTime = 1.87 s  ClockTime = 2 s

Time = 350

smoothSolver:  Solving for Ux, Initial residual = 0.00175081, Final residual = 3.72586e-07, No Iterations 5
smoothSolver:  Solving for Uy, Initial residual = 0.00614051, Final residual = 3.24182e-07, No Iterations 6
GAMG:  Solving for p, Initial residual = 0.0102168, Final residual = 5.06195e-07, No Iterations 13
time step continuity errors : sum local = 2.53647e-06, global = 3.7244e-07, cumulative = 1.73625e-05
smoothSolver:  Solving for epsilon, Initial residual = 0.00202736, Final residual = 6.96609e-07, No Iterations 6
smoothSolver:  Solving for k, Initial residual = 0.00300483, Final residual = 4.40276e-07, No Iterations 7
ExecutionTime = 1.9 s  ClockTime = 2 s

Time = 351

smoothSolver:  Solving for Ux, Initial residual = 0.00174661, Final residual = 3.7242e-07, No Iterations 5
smoothSolver:  Solving for Uy, Initial residual = 0.00611025, Final residual = 3.23045e-07, No Iterations 6
GAMG:  Solving for p, Initial residual = 0.0119154, Final residual = 5.45926e-07, No Iterations 13
time step continuity errors : sum local = 2.74183e-06, global = 4.03341e-07, cumulative = 1.77659e-05
smoothSolver:  Solving for epsilon, Initial residual = 0.00202731, Final residual = 6.9702e-07, No Iterations 6
smoothSolver:  Solving for k, Initial residual = 0.00300676, Final residual = 4.41055e-07, No Iterations 7
ExecutionTime = 1.93 s  ClockTime = 2 s

Time = 352

smoothSolver:  Solving for Ux, Initial residual = 0.00174576, Final residual = 3.72336e-07, No Iterations 5
smoothSolver:  Solving for Uy, Initial residual = 0.00608923, Final residual = 3.21873e-07, No Iterations 6
GAMG:  Solving for p, Initial residual = 0.0106178, Final residual = 4.00451e-07, No Iterations 13
time step continuity errors : sum local = 2.01076e-06, global = 2.70319e-07, cumulative = 1.80362e-05
smoothSolver:  Solving for epsilon, Initial residual = 0.00201898, Final residual = 6.97289e-07, No Iterations 6
smoothSolver:  Solving for k, Initial residual = 0.00300847, Final residual = 4.41839e-07, No Iterations 7
ExecutionTime = 1.96 s  ClockTime = 2 s

Time = 353

smoothSolver:  Solving for Ux, Initial residual = 0.00174205, Final residual = 3.72198e-07, No Iterations 5
smoothSolver:  Solving for Uy, Initial residual = 0.0060579, Final residual = 3.20715e-07, No Iterations 6
GAMG:  Solving for p, Initial residual = 0.0123869, Final residual = 4.58153e-07, No Iterations 13
time step continuity errors : sum local = 2.30366e-06, global = 3.37767e-07, cumulative = 1.83739e-05
smoothSolver:  Solving for epsilon, Initial residual = 0.00202098, Final residual = 6.97646e-07, No Iterations 6
smoothSolver:  Solving for k, Initial residual = 0.00301246, Final residual = 4.42635e-07, No Iterations 7
ExecutionTime = 2 s  ClockTime = 2 s

Time = 354

smoothSolver:  Solving for Ux, Initial residual = 0.00173994, Final residual = 3.71937e-07, No Iterations 5
smoothSolver:  Solving for Uy, Initial residual = 0.00603247, Final residual = 3.19599e-07, No Iterations 6
GAMG:  Solving for p, Initial residual = 0.0117697, Final residual = 5.16625e-07, No Iterations 13
time step continuity errors : sum local = 2.60317e-06, global = 3.72364e-07, cumulative = 1.87463e-05
smoothSolver:  Solving for epsilon, Initial residual = 0.00201911, Final residual = 6.98081e-07, No Iterations 6
smoothSolver:  Solving for k, Initial residual = 0.00301448, Final residual = 4.43454e-07, No Iterations 7
ExecutionTime = 2.03 s  ClockTime = 2 s

Time = 355

smoothSolver:  Solving for Ux, Initial residual = 0.00173608, Final residual = 3.7179e-07, No Iterations 5
smoothSolver:  Solving for Uy, Initial residual = 0.00600353, Final residual = 3.18527e-07, No Iterations 6
GAMG:  Solving for p, Initial residual = 0.0129547, Final residual = 5.45184e-07, No Iterations 13
time step continuity errors : sum local = 2.75014e-06, global = 4.03904e-07, cumulative = 1.91502e-05
smoothSolver:  Solving for epsilon, Initial residual = 0.00201645, Final residual = 6.98242e-07, No Iterations 6
smoothSolver:  Solving for k, Initial residual = 0.00301687, Final residual = 4.44238e-07, No Iterations 7
ExecutionTime = 2.07 s  ClockTime = 2 s

Time = 356

smoothSolver:  Solving for Ux, Initial residual = 0.00173465, Final residual = 3.7177e-07, No Iterations 5
smoothSolver:  Solving for Uy, Initial residual = 0.0059844, Final residual = 3.17463e-07, No Iterations 6
GAMG:  Solving for p, Initial residual = 0.00957842, Final residual = 4.02876e-07, No Iterations 13
time step continuity errors : sum local = 2.03365e-06, global = 2.64378e-07, cumulative = 1.94146e-05
smoothSolver:  Solving for epsilon, Initial residual = 0.00200871, Final residual = 6.98432e-07, No Iterations 6
smoothSolver:  Solving for k, Initial residual = 0.00301787, Final residual = 4.44937e-07, No Iterations 7
ExecutionTime = 2.11 s  ClockTime = 2 s

Time = 357

smoothSolver:  Solving for Ux, Initial residual = 0.00173055, Final residual = 3.71611e-07, No Iterations 5
smoothSolver:  Solving for Uy, Initial residual = 0.00595553, Final residual = 3.16393e-07, No Iterations 6
GAMG:  Solving for p, Initial residual = 0.012463, Final residual = 4.60917e-07, No Iterations 13
time step continuity errors : sum local = 2.3295e-06, global = 3.4007e-07, cumulative = 1.97547e-05
smoothSolver:  Solving for epsilon, Initial residual = 0.00201291, Final residual = 6.98742e-07, No Iterations 6
smoothSolver:  Solving for k, Initial residual = 0.00302113, Final residual = 4.45643e-07, No Iterations 7
ExecutionTime = 2.14 s  ClockTime = 2 s

Time = 358

smoothSolver:  Solving for Ux, Initial residual = 0.00172798, Final residual = 3.71288e-07, No Iterations 5
smoothSolver:  Solving for Uy, Initial residual = 0.00593025, Final residual = 3.15327e-07, No Iterations 6
GAMG:  Solving for p, Initial residual = 0.0101024, Final residual = 5.25496e-07, No Iterations 13
time step continuity errors : sum local = 2.66018e-06, global = 3.74171e-07, cumulative = 2.01288e-05
smoothSolver:  Solving for epsilon, Initial residual = 0.00201103, Final residual = 6.98933e-07, No Iterations 6
smoothSolver:  Solving for k, Initial residual = 0.00302367, Final residual = 4.46434e-07, No Iterations 7
ExecutionTime = 2.17 s  ClockTime = 2 s

Time = 359

smoothSolver:  Solving for Ux, Initial residual = 0.00172393, Final residual = 3.71204e-07, No Iterations 5
smoothSolver:  Solving for Uy, Initial residual = 0.00590109, Final residual = 3.14271e-07, No Iterations 6
GAMG:  Solving for p, Initial residual = 0.0113507, Final residual = 5.49152e-07, No Iterations 13
time step continuity errors : sum local = 2.7878e-06, global = 4.08743e-07, cumulative = 2.05376e-05
smoothSolver:  Solving for epsilon, Initial residual = 0.00200772, Final residual = 6.99088e-07, No Iterations 6
smoothSolver:  Solving for k, Initial residual = 0.00302579, Final residual = 4.47162e-07, No Iterations 7
ExecutionTime = 2.21 s  ClockTime = 2 s

Time = 360

smoothSolver:  Solving for Ux, Initial residual = 0.00172248, Final residual = 3.71211e-07, No Iterations 5
smoothSolver:  Solving for Uy, Initial residual = 0.00588336, Final residual = 3.13242e-07, No Iterations 6
GAMG:  Solving for p, Initial residual = 0.00906984, Final residual = 4.05486e-07, No Iterations 13
time step continuity errors : sum local = 2.05959e-06, global = 2.60879e-07, cumulative = 2.07985e-05
smoothSolver:  Solving for epsilon, Initial residual = 0.00200287, Final residual = 6.99195e-07, No Iterations 6
smoothSolver:  Solving for k, Initial residual = 0.00302725, Final residual = 4.47853e-07, No Iterations 7
ExecutionTime = 2.24 s  ClockTime = 2 s

Time = 361

smoothSolver:  Solving for Ux, Initial residual = 0.00171878, Final residual = 3.7106e-07, No Iterations 5
smoothSolver:  Solving for Uy, Initial residual = 0.00585769, Final residual = 3.12301e-07, No Iterations 6
GAMG:  Solving for p, Initial residual = 0.0121039, Final residual = 4.49537e-07, No Iterations 13
time step continuity errors : sum local = 2.28451e-06, global = 3.30704e-07, cumulative = 2.11292e-05
smoothSolver:  Solving for epsilon, Initial residual = 0.00200832, Final residual = 6.99276e-07, No Iterations 6
smoothSolver:  Solving for k, Initial residual = 0.00303015, Final residual = 4.48538e-07, No Iterations 7
ExecutionTime = 2.27 s  ClockTime = 2 s

Time = 362

smoothSolver:  Solving for Ux, Initial residual = 0.00171432, Final residual = 3.70826e-07, No Iterations 5
smoothSolver:  Solving for Uy, Initial residual = 0.00582942, Final residual = 3.1133e-07, No Iterations 6
GAMG:  Solving for p, Initial residual = 0.0114789, Final residual = 5.05871e-07, No Iterations 13
time step continuity errors : sum local = 2.57374e-06, global = 3.7841e-07, cumulative = 2.15076e-05
smoothSolver:  Solving for epsilon, Initial residual = 0.00201487, Final residual = 6.99503e-07, No Iterations 6
smoothSolver:  Solving for k, Initial residual = 0.00303284, Final residual = 4.49183e-07, No Iterations 7
ExecutionTime = 2.3 s  ClockTime = 2 s

Time = 363

smoothSolver:  Solving for Ux, Initial residual = 0.00171341, Final residual = 3.70607e-07, No Iterations 5
smoothSolver:  Solving for Uy, Initial residual = 0.00581466, Final residual = 3.10376e-07, No Iterations 6
GAMG:  Solving for p, Initial residual = 0.0116247, Final residual = 5.8593e-07, No Iterations 13
time step continuity errors : sum local = 2.98718e-06, global = 4.40809e-07, cumulative = 2.19484e-05
smoothSolver:  Solving for epsilon, Initial residual = 0.00201713, Final residual = 6.99587e-07, No Iterations 6
smoothSolver:  Solving for k, Initial residual = 0.00303643, Final residual = 4.49918e-07, No Iterations 7
ExecutionTime = 2.34 s  ClockTime = 2 s

Time = 364

smoothSolver:  Solving for Ux, Initial residual = 0.0017093, Final residual = 3.70561e-07, No Iterations 5
smoothSolver:  Solving for Uy, Initial residual = 0.00578584, Final residual = 3.09361e-07, No Iterations 6
GAMG:  Solving for p, Initial residual = 0.0127059, Final residual = 5.55993e-07, No Iterations 13
time step continuity errors : sum local = 2.84198e-06, global = 4.22148e-07, cumulative = 2.23705e-05
smoothSolver:  Solving for epsilon, Initial residual = 0.0020152, Final residual = 6.99702e-07, No Iterations 6
smoothSolver:  Solving for k, Initial residual = 0.00303818, Final residual = 4.506e-07, No Iterations 7
ExecutionTime = 2.37 s  ClockTime = 2 s

Time = 365

smoothSolver:  Solving for Ux, Initial residual = 0.00170744, Final residual = 3.7055e-07, No Iterations 5
smoothSolver:  Solving for Uy, Initial residual = 0.00576918, Final residual = 3.08427e-07, No Iterations 6
GAMG:  Solving for p, Initial residual = 0.00866518, Final residual = 3.80837e-07, No Iterations 13
time step continuity errors : sum local = 1.94542e-06, global = 2.35491e-07, cumulative = 2.2606e-05
smoothSolver:  Solving for epsilon, Initial residual = 0.00199859, Final residual = 6.99596e-07, No Iterations 6
smoothSolver:  Solving for k, Initial residual = 0.00303825, Final residual = 4.51219e-07, No Iterations 7
ExecutionTime = 2.4 s  ClockTime = 2 s

Time = 366

smoothSolver:  Solving for Ux, Initial residual = 0.00170296, Final residual = 3.70402e-07, No Iterations 5
smoothSolver:  Solving for Uy, Initial residual = 0.0057441, Final residual = 3.07564e-07, No Iterations 6
GAMG:  Solving for p, Initial residual = 0.0114875, Final residual = 4.20668e-07, No Iterations 13
time step continuity errors : sum local = 2.15055e-06, global = 3.04907e-07, cumulative = 2.29109e-05
smoothSolver:  Solving for epsilon, Initial residual = 0.00199969, Final residual = 6.99593e-07, No Iterations 6
smoothSolver:  Solving for k, Initial residual = 0.00304137, Final residual = 4.51814e-07, No Iterations 7
ExecutionTime = 2.43 s  ClockTime = 2 s

Time = 367

smoothSolver:  Solving for Ux, Initial residual = 0.00169984, Final residual = 3.7007e-07, No Iterations 5
smoothSolver:  Solving for Uy, Initial residual = 0.00572399, Final residual = 3.06746e-07, No Iterations 6
GAMG:  Solving for p, Initial residual = 0.00948505, Final residual = 5.36932e-07, No Iterations 13
time step continuity errors : sum local = 2.74834e-06, global = 3.85229e-07, cumulative = 2.32962e-05
smoothSolver:  Solving for epsilon, Initial residual = 0.00199277, Final residual = 6.9955e-07, No Iterations 6
smoothSolver:  Solving for k, Initial residual = 0.00304248, Final residual = 4.52466e-07, No Iterations 7
ExecutionTime = 2.47 s  ClockTime = 2 s

Time = 368

smoothSolver:  Solving for Ux, Initial residual = 0.00169498, Final residual = 3.69957e-07, No Iterations 5
smoothSolver:  Solving for Uy, Initial residual = 0.0056994, Final residual = 3.05881e-07, No Iterations 6
GAMG:  Solving for p, Initial residual = 0.01131, Final residual = 5.53497e-07, No Iterations 13
time step continuity errors : sum local = 2.83834e-06, global = 4.16474e-07, cumulative = 2.37126e-05
smoothSolver:  Solving for epsilon, Initial residual = 0.00199403, Final residual = 6.99383e-07, No Iterations 6
smoothSolver:  Solving for k, Initial residual = 0.00304433, Final residual = 4.53129e-07, No Iterations 7
ExecutionTime = 2.5 s  ClockTime = 2 s

Time = 369

smoothSolver:  Solving for Ux, Initial residual = 0.00169333, Final residual = 3.69959e-07, No Iterations 5
smoothSolver:  Solving for Uy, Initial residual = 0.00568436, Final residual = 3.0497e-07, No Iterations 6
GAMG:  Solving for p, Initial residual = 0.00842769, Final residual = 4.09468e-07, No Iterations 13
time step continuity errors : sum local = 2.10084e-06, global = 2.56279e-07, cumulative = 2.39689e-05
smoothSolver:  Solving for epsilon, Initial residual = 0.00198592, Final residual = 6.9936e-07, No Iterations 6
smoothSolver:  Solving for k, Initial residual = 0.00304458, Final residual = 4.53744e-07, No Iterations 7
ExecutionTime = 2.53 s  ClockTime = 2 s

Time = 370

smoothSolver:  Solving for Ux, Initial residual = 0.00168934, Final residual = 3.6983e-07, No Iterations 5
smoothSolver:  Solving for Uy, Initial residual = 0.00566144, Final residual = 3.04114e-07, No Iterations 6
GAMG:  Solving for p, Initial residual = 0.0105514, Final residual = 4.26789e-07, No Iterations 13
time step continuity errors : sum local = 2.18986e-06, global = 3.05907e-07, cumulative = 2.42748e-05
smoothSolver:  Solving for epsilon, Initial residual = 0.00198959, Final residual = 6.99306e-07, No Iterations 6
smoothSolver:  Solving for k, Initial residual = 0.0030477, Final residual = 4.54321e-07, No Iterations 7
ExecutionTime = 2.57 s  ClockTime = 2 s

Time = 371

smoothSolver:  Solving for Ux, Initial residual = 0.00168468, Final residual = 3.69617e-07, No Iterations 5
smoothSolver:  Solving for Uy, Initial residual = 0.00563661, Final residual = 3.03324e-07, No Iterations 6
GAMG:  Solving for p, Initial residual = 0.0109548, Final residual = 4.54819e-07, No Iterations 13
time step continuity errors : sum local = 2.33469e-06, global = 3.32038e-07, cumulative = 2.46069e-05
smoothSolver:  Solving for epsilon, Initial residual = 0.00199599, Final residual = 6.99301e-07, No Iterations 6
smoothSolver:  Solving for k, Initial residual = 0.0030509, Final residual = 4.54912e-07, No Iterations 7
ExecutionTime = 2.6 s  ClockTime = 2 s

Time = 372

smoothSolver:  Solving for Ux, Initial residual = 0.00168316, Final residual = 3.69441e-07, No Iterations 5
smoothSolver:  Solving for Uy, Initial residual = 0.00562486, Final residual = 3.0256e-07, No Iterations 6
GAMG:  Solving for p, Initial residual = 0.0106945, Final residual = 5.52681e-07, No Iterations 13
time step continuity errors : sum local = 2.84394e-06, global = 4.15424e-07, cumulative = 2.50223e-05
smoothSolver:  Solving for epsilon, Initial residual = 0.00199719, Final residual = 6.99463e-07, No Iterations 6
smoothSolver:  Solving for k, Initial residual = 0.00305361, Final residual = 4.55571e-07, No Iterations 7
ExecutionTime = 2.64 s  ClockTime = 3 s

Time = 373

smoothSolver:  Solving for Ux, Initial residual = 0.00167857, Final residual = 3.69337e-07, No Iterations 5
smoothSolver:  Solving for Uy, Initial residual = 0.00560174, Final residual = 3.01777e-07, No Iterations 6
GAMG:  Solving for p, Initial residual = 0.0114858, Final residual = 5.13048e-07, No Iterations 13
time step continuity errors : sum local = 2.64419e-06, global = 3.86213e-07, cumulative = 2.54085e-05
smoothSolver:  Solving for epsilon, Initial residual = 0.00199502, Final residual = 6.99526e-07, No Iterations 6
smoothSolver:  Solving for k, Initial residual = 0.00305564, Final residual = 4.56161e-07, No Iterations 7
ExecutionTime = 2.67 s  ClockTime = 3 s

Time = 374

smoothSolver:  Solving for Ux, Initial residual = 0.00167645, Final residual = 3.69286e-07, No Iterations 5
smoothSolver:  Solving for Uy, Initial residual = 0.00558915, Final residual = 3.01007e-07, No Iterations 6
GAMG:  Solving for p, Initial residual = 0.00817163, Final residual = 3.81066e-07, No Iterations 13
time step continuity errors : sum local = 1.96243e-06, global = 2.35661e-07, cumulative = 2.56441e-05
smoothSolver:  Solving for epsilon, Initial residual = 0.00198233, Final residual = 6.99456e-07, No Iterations 6
smoothSolver:  Solving for k, Initial residual = 0.00305561, Final residual = 4.56722e-07, No Iterations 7
ExecutionTime = 2.7 s  ClockTime = 3 s

Time = 375

smoothSolver:  Solving for Ux, Initial residual = 0.00167183, Final residual = 3.69114e-07, No Iterations 5
smoothSolver:  Solving for Uy, Initial residual = 0.00556779, Final residual = 3.00281e-07, No Iterations 6
GAMG:  Solving for p, Initial residual = 0.0108788, Final residual = 3.77837e-07, No Iterations 13
time step continuity errors : sum local = 1.94585e-06, global = 2.66186e-07, cumulative = 2.59103e-05
smoothSolver:  Solving for epsilon, Initial residual = 0.00199003, Final residual = 6.99414e-07, No Iterations 6
smoothSolver:  Solving for k, Initial residual = 0.00305904, Final residual = 4.57279e-07, No Iterations 7
ExecutionTime = 2.74 s  ClockTime = 3 s

Time = 376

smoothSolver:  Solving for Ux, Initial residual = 0.00166741, Final residual = 3.68874e-07, No Iterations 5
smoothSolver:  Solving for Uy, Initial residual = 0.00554494, Final residual = 2.99585e-07, No Iterations 6
GAMG:  Solving for p, Initial residual = 0.0115846, Final residual = 4.36437e-07, No Iterations 13
time step continuity errors : sum local = 2.24687e-06, global = 3.16124e-07, cumulative = 2.62265e-05
smoothSolver:  Solving for epsilon, Initial residual = 0.00199026, Final residual = 6.99345e-07, No Iterations 6
smoothSolver:  Solving for k, Initial residual = 0.00306054, Final residual = 4.5785e-07, No Iterations 7
ExecutionTime = 2.77 s  ClockTime = 3 s

Time = 377

smoothSolver:  Solving for Ux, Initial residual = 0.00166582, Final residual = 3.68652e-07, No Iterations 5
smoothSolver:  Solving for Uy, Initial residual = 0.00553557, Final residual = 2.98892e-07, No Iterations 6
GAMG:  Solving for p, Initial residual = 0.010523, Final residual = 5.45702e-07, No Iterations 13
time step continuity errors : sum local = 2.81492e-06, global = 4.10147e-07, cumulative = 2.66366e-05
smoothSolver:  Solving for epsilon, Initial residual = 0.00198717, Final residual = 6.99484e-07, No Iterations 6
smoothSolver:  Solving for k, Initial residual = 0.00306224, Final residual = 4.58443e-07, No Iterations 7
ExecutionTime = 2.81 s  ClockTime = 3 s

Time = 378

smoothSolver:  Solving for Ux, Initial residual = 0.00166068, Final residual = 3.68565e-07, No Iterations 5
smoothSolver:  Solving for Uy, Initial residual = 0.00551318, Final residual = 2.98176e-07, No Iterations 6
GAMG:  Solving for p, Initial residual = 0.0119718, Final residual = 4.83553e-07, No Iterations 13
time step continuity errors : sum local = 2.49963e-06, global = 3.60825e-07, cumulative = 2.69974e-05
smoothSolver:  Solving for epsilon, Initial residual = 0.00198786, Final residual = 6.99515e-07, No Iterations 6
smoothSolver:  Solving for k, Initial residual = 0.00306372, Final residual = 4.59005e-07, No Iterations 7
ExecutionTime = 2.84 s  ClockTime = 3 s

Time = 379

smoothSolver:  Solving for Ux, Initial residual = 0.00165842, Final residual = 3.68514e-07, No Iterations 5
smoothSolver:  Solving for Uy, Initial residual = 0.00550192, Final residual = 2.97494e-07, No Iterations 6
GAMG:  Solving for p, Initial residual = 0.00868912, Final residual = 3.65065e-07, No Iterations 13
time step continuity errors : sum local = 1.88552e-06, global = 2.23261e-07, cumulative = 2.72207e-05
smoothSolver:  Solving for epsilon, Initial residual = 0.00197315, Final residual = 6.99327e-07, No Iterations 6
smoothSolver:  Solving for k, Initial residual = 0.00306344, Final residual = 4.59533e-07, No Iterations 7
ExecutionTime = 2.87 s  ClockTime = 3 s

Time = 380

smoothSolver:  Solving for Ux, Initial residual = 0.00165349, Final residual = 3.68303e-07, No Iterations 5
smoothSolver:  Solving for Uy, Initial residual = 0.00548343, Final residual = 2.96913e-07, No Iterations 6
GAMG:  Solving for p, Initial residual = 0.0102282, Final residual = 3.64386e-07, No Iterations 13
time step continuity errors : sum local = 1.88123e-06, global = 2.50723e-07, cumulative = 2.74714e-05
smoothSolver:  Solving for epsilon, Initial residual = 0.00197244, Final residual = 6.99288e-07, No Iterations 6
smoothSolver:  Solving for k, Initial residual = 0.00306524, Final residual = 4.60054e-07, No Iterations 7
ExecutionTime = 2.91 s  ClockTime = 3 s

Time = 381

smoothSolver:  Solving for Ux, Initial residual = 0.00164813, Final residual = 3.68003e-07, No Iterations 5
smoothSolver:  Solving for Uy, Initial residual = 0.0054625, Final residual = 2.96319e-07, No Iterations 6
GAMG:  Solving for p, Initial residual = 0.0106042, Final residual = 4.14971e-07, No Iterations 13
time step continuity errors : sum local = 2.14301e-06, global = 2.95106e-07, cumulative = 2.77665e-05
smoothSolver:  Solving for epsilon, Initial residual = 0.00197162, Final residual = 6.99315e-07, No Iterations 6
smoothSolver:  Solving for k, Initial residual = 0.00306602, Final residual = 4.60585e-07, No Iterations 7
ExecutionTime = 2.94 s  ClockTime = 3 s

Time = 382

smoothSolver:  Solving for Ux, Initial residual = 0.00164619, Final residual = 3.67755e-07, No Iterations 5
smoothSolver:  Solving for Uy, Initial residual = 0.00545332, Final residual = 2.95701e-07, No Iterations 6
GAMG:  Solving for p, Initial residual = 0.010131, Final residual = 5.26709e-07, No Iterations 13
time step continuity errors : sum local = 2.72327e-06, global = 3.88968e-07, cumulative = 2.81555e-05
smoothSolver:  Solving for epsilon, Initial residual = 0.00197086, Final residual = 6.99175e-07, No Iterations 6
smoothSolver:  Solving for k, Initial residual = 0.00306822, Final residual = 4.61174e-07, No Iterations 7
ExecutionTime = 2.97 s  ClockTime = 3 s

Time = 383

smoothSolver:  Solving for Ux, Initial residual = 0.0016414, Final residual = 3.67673e-07, No Iterations 5
smoothSolver:  Solving for Uy, Initial residual = 0.0054338, Final residual = 2.95027e-07, No Iterations 6
GAMG:  Solving for p, Initial residual = 0.0116377, Final residual = 4.75172e-07, No Iterations 13
time step continuity errors : sum local = 2.46283e-06, global = 3.4994e-07, cumulative = 2.85054e-05
smoothSolver:  Solving for epsilon, Initial residual = 0.00196878, Final residual = 6.99266e-07, No Iterations 6
smoothSolver:  Solving for k, Initial residual = 0.00306951, Final residual = 4.61702e-07, No Iterations 7
ExecutionTime = 3.01 s  ClockTime = 3 s

Time = 384

smoothSolver:  Solving for Ux, Initial residual = 0.0016385, Final residual = 3.67566e-07, No Iterations 5
smoothSolver:  Solving for Uy, Initial residual = 0.00542409, Final residual = 2.94442e-07, No Iterations 6
GAMG:  Solving for p, Initial residual = 0.00759416, Final residual = 3.56344e-07, No Iterations 13
time step continuity errors : sum local = 1.84611e-06, global = 2.12318e-07, cumulative = 2.87177e-05
smoothSolver:  Solving for epsilon, Initial residual = 0.0019575, Final residual = 6.99209e-07, No Iterations 6
smoothSolver:  Solving for k, Initial residual = 0.0030696, Final residual = 4.62162e-07, No Iterations 7
ExecutionTime = 3.04 s  ClockTime = 3 s

Time = 385

smoothSolver:  Solving for Ux, Initial residual = 0.00163359, Final residual = 3.67319e-07, No Iterations 5
smoothSolver:  Solving for Uy, Initial residual = 0.00540767, Final residual = 2.93945e-07, No Iterations 6
GAMG:  Solving for p, Initial residual = 0.0103861, Final residual = 3.47573e-07, No Iterations 13
time step continuity errors : sum local = 1.79872e-06, global = 2.34476e-07, cumulative = 2.89522e-05
smoothSolver:  Solving for epsilon, Initial residual = 0.00196257, Final residual = 6.98982e-07, No Iterations 6
smoothSolver:  Solving for k, Initial residual = 0.00307151, Final residual = 4.62688e-07, No Iterations 7
ExecutionTime = 3.08 s  ClockTime = 3 s

Time = 386

smoothSolver:  Solving for Ux, Initial residual = 0.00162845, Final residual = 3.66993e-07, No Iterations 5
smoothSolver:  Solving for Uy, Initial residual = 0.00538898, Final residual = 2.93463e-07, No Iterations 6
GAMG:  Solving for p, Initial residual = 0.0102827, Final residual = 4.01018e-07, No Iterations 13
time step continuity errors : sum local = 2.07603e-06, global = 2.80243e-07, cumulative = 2.92325e-05
smoothSolver:  Solving for epsilon, Initial residual = 0.00196634, Final residual = 6.99044e-07, No Iterations 6
smoothSolver:  Solving for k, Initial residual = 0.00307276, Final residual = 4.63216e-07, No Iterations 7
ExecutionTime = 3.12 s  ClockTime = 3 s

Time = 387

smoothSolver:  Solving for Ux, Initial residual = 0.00162325, Final residual = 3.66717e-07, No Iterations 5
smoothSolver:  Solving for Uy, Initial residual = 0.00537297, Final residual = 2.92913e-07, No Iterations 6
GAMG:  Solving for p, Initial residual = 0.00869999, Final residual = 4.75003e-07, No Iterations 13
time step continuity errors : sum local = 2.4594e-06, global = 3.39334e-07, cumulative = 2.95718e-05
smoothSolver:  Solving for epsilon, Initial residual = 0.00196779, Final residual = 6.98904e-07, No Iterations 6
smoothSolver:  Solving for k, Initial residual = 0.00307436, Final residual = 4.63754e-07, No Iterations 7
ExecutionTime = 3.14 s  ClockTime = 3 s

Time = 388

smoothSolver:  Solving for Ux, Initial residual = 0.00162194, Final residual = 3.66553e-07, No Iterations 5
smoothSolver:  Solving for Uy, Initial residual = 0.0053683, Final residual = 2.92351e-07, No Iterations 6
GAMG:  Solving for p, Initial residual = 0.0114851, Final residual = 4.94751e-07, No Iterations 13
time step continuity errors : sum local = 2.56917e-06, global = 3.64945e-07, cumulative = 2.99367e-05
smoothSolver:  Solving for epsilon, Initial residual = 0.00197478, Final residual = 6.99119e-07, No Iterations 6
smoothSolver:  Solving for k, Initial residual = 0.00307698, Final residual = 4.64211e-07, No Iterations 7
ExecutionTime = 3.18 s  ClockTime = 3 s

Time = 389

smoothSolver:  Solving for Ux, Initial residual = 0.0016173, Final residual = 3.66353e-07, No Iterations 5
smoothSolver:  Solving for Uy, Initial residual = 0.00535079, Final residual = 2.91824e-07, No Iterations 6
GAMG:  Solving for p, Initial residual = 0.0118128, Final residual = 4.11207e-07, No Iterations 13
time step continuity errors : sum local = 2.13632e-06, global = 2.95656e-07, cumulative = 3.02324e-05
smoothSolver:  Solving for epsilon, Initial residual = 0.0019746, Final residual = 6.98974e-07, No Iterations 6
smoothSolver:  Solving for k, Initial residual = 0.00307866, Final residual = 4.64702e-07, No Iterations 7
ExecutionTime = 3.21 s  ClockTime = 3 s

Time = 390

smoothSolver:  Solving for Ux, Initial residual = 0.00161424, Final residual = 3.66148e-07, No Iterations 5
smoothSolver:  Solving for Uy, Initial residual = 0.00534322, Final residual = 2.91376e-07, No Iterations 6
GAMG:  Solving for p, Initial residual = 0.00793049, Final residual = 9.86263e-07, No Iterations 12
time step continuity errors : sum local = 5.12178e-06, global = -1.16234e-06, cumulative = 2.90701e-05
smoothSolver:  Solving for epsilon, Initial residual = 0.00195915, Final residual = 6.98944e-07, No Iterations 6
smoothSolver:  Solving for k, Initial residual = 0.00307739, Final residual = 4.6517e-07, No Iterations 7
ExecutionTime = 3.25 s  ClockTime = 3 s

Time = 391

smoothSolver:  Solving for Ux, Initial residual = 0.00160864, Final residual = 3.65843e-07, No Iterations 5
smoothSolver:  Solving for Uy, Initial residual = 0.00532763, Final residual = 2.9097e-07, No Iterations 6
GAMG:  Solving for p, Initial residual = 0.00987532, Final residual = 3.55646e-07, No Iterations 13
time step continuity errors : sum local = 1.84513e-06, global = 2.40112e-07, cumulative = 2.93102e-05
smoothSolver:  Solving for epsilon, Initial residual = 0.00196216, Final residual = 6.98872e-07, No Iterations 6
smoothSolver:  Solving for k, Initial residual = 0.0030797, Final residual = 4.65657e-07, No Iterations 7
ExecutionTime = 3.28 s  ClockTime = 3 s

Time = 392

smoothSolver:  Solving for Ux, Initial residual = 0.00160322, Final residual = 3.65482e-07, No Iterations 5
smoothSolver:  Solving for Uy, Initial residual = 0.00531104, Final residual = 2.90544e-07, No Iterations 6
GAMG:  Solving for p, Initial residual = 0.0105327, Final residual = 4.20568e-07, No Iterations 13
time step continuity errors : sum local = 2.17916e-06, global = 2.98046e-07, cumulative = 2.96082e-05
smoothSolver:  Solving for epsilon, Initial residual = 0.00196623, Final residual = 6.98646e-07, No Iterations 6
smoothSolver:  Solving for k, Initial residual = 0.0030814, Final residual = 4.66189e-07, No Iterations 7
ExecutionTime = 3.31 s  ClockTime = 3 s

Time = 393

smoothSolver:  Solving for Ux, Initial residual = 0.00159827, Final residual = 3.65187e-07, No Iterations 5
smoothSolver:  Solving for Uy, Initial residual = 0.00529804, Final residual = 2.90068e-07, No Iterations 6
GAMG:  Solving for p, Initial residual = 0.00883957, Final residual = 4.50661e-07, No Iterations 13
time step continuity errors : sum local = 2.33844e-06, global = 3.17185e-07, cumulative = 2.99254e-05
smoothSolver:  Solving for epsilon, Initial residual = 0.00195762, Final residual = 6.98824e-07, No Iterations 6
smoothSolver:  Solving for k, Initial residual = 0.00308103, Final residual = 4.66575e-07, No Iterations 7
ExecutionTime = 3.35 s  ClockTime = 3 s

Time = 394

smoothSolver:  Solving for Ux, Initial residual = 0.00159628, Final residual = 3.64905e-07, No Iterations 5
smoothSolver:  Solving for Uy, Initial residual = 0.00529466, Final residual = 2.89638e-07, No Iterations 6
GAMG:  Solving for p, Initial residual = 0.011096, Final residual = 4.66773e-07, No Iterations 13
time step continuity errors : sum local = 2.42837e-06, global = 3.42398e-07, cumulative = 3.02678e-05
smoothSolver:  Solving for epsilon, Initial residual = 0.00196102, Final residual = 6.99095e-07, No Iterations 6
smoothSolver:  Solving for k, Initial residual = 0.00308375, Final residual = 4.67042e-07, No Iterations 7
ExecutionTime = 3.38 s  ClockTime = 3 s

Time = 395

smoothSolver:  Solving for Ux, Initial residual = 0.00159133, Final residual = 3.64685e-07, No Iterations 5
smoothSolver:  Solving for Uy, Initial residual = 0.00527901, Final residual = 2.89207e-07, No Iterations 6
GAMG:  Solving for p, Initial residual = 0.00870392, Final residual = 3.57256e-07, No Iterations 13
time step continuity errors : sum local = 1.8562e-06, global = 2.25676e-07, cumulative = 3.04935e-05
smoothSolver:  Solving for epsilon, Initial residual = 0.00195293, Final residual = 6.98954e-07, No Iterations 6
smoothSolver:  Solving for k, Initial residual = 0.00308321, Final residual = 4.67588e-07, No Iterations 7
ExecutionTime = 3.41 s  ClockTime = 3 s

Time = 396

smoothSolver:  Solving for Ux, Initial residual = 0.00158646, Final residual = 3.64399e-07, No Iterations 5
smoothSolver:  Solving for Uy, Initial residual = 0.00526717, Final residual = 2.88844e-07, No Iterations 6
GAMG:  Solving for p, Initial residual = 0.00803147, Final residual = 9.67935e-07, No Iterations 12
time step continuity errors : sum local = 5.03029e-06, global = -1.16431e-06, cumulative = 2.93292e-05
smoothSolver:  Solving for epsilon, Initial residual = 0.00194362, Final residual = 6.99207e-07, No Iterations 6
smoothSolver:  Solving for k, Initial residual = 0.00308271, Final residual = 4.67992e-07, No Iterations 7
ExecutionTime = 3.44 s  ClockTime = 3 s

Time = 397

smoothSolver:  Solving for Ux, Initial residual = 0.0015811, Final residual = 3.63985e-07, No Iterations 5
smoothSolver:  Solving for Uy, Initial residual = 0.00525348, Final residual = 2.88495e-07, No Iterations 6
GAMG:  Solving for p, Initial residual = 0.0089194, Final residual = 3.79519e-07, No Iterations 13
time step continuity errors : sum local = 1.97219e-06, global = 2.56638e-07, cumulative = 2.95858e-05
smoothSolver:  Solving for epsilon, Initial residual = 0.00194333, Final residual = 6.99403e-07, No Iterations 6
smoothSolver:  Solving for k, Initial residual = 0.0030838, Final residual = 4.68377e-07, No Iterations 7
ExecutionTime = 3.49 s  ClockTime = 3 s

Time = 398

smoothSolver:  Solving for Ux, Initial residual = 0.00157606, Final residual = 3.6358e-07, No Iterations 5
smoothSolver:  Solving for Uy, Initial residual = 0.00524192, Final residual = 2.88158e-07, No Iterations 6
GAMG:  Solving for p, Initial residual = 0.00821992, Final residual = 4.02459e-07, No Iterations 13
time step continuity errors : sum local = 2.08968e-06, global = 2.71596e-07, cumulative = 2.98574e-05
smoothSolver:  Solving for epsilon, Initial residual = 0.00194079, Final residual = 6.99389e-07, No Iterations 6
smoothSolver:  Solving for k, Initial residual = 0.00308459, Final residual = 4.68856e-07, No Iterations 7
ExecutionTime = 3.52 s  ClockTime = 3 s

Time = 399

smoothSolver:  Solving for Ux, Initial residual = 0.0015744, Final residual = 3.63248e-07, No Iterations 5
smoothSolver:  Solving for Uy, Initial residual = 0.00524139, Final residual = 2.8781e-07, No Iterations 6
GAMG:  Solving for p, Initial residual = 0.0103022, Final residual = 4.45952e-07, No Iterations 13
time step continuity errors : sum local = 2.32279e-06, global = 3.24731e-07, cumulative = 3.01821e-05
smoothSolver:  Solving for epsilon, Initial residual = 0.00194458, Final residual = 6.99746e-07, No Iterations 6
smoothSolver:  Solving for k, Initial residual = 0.00308668, Final residual = 4.69321e-07, No Iterations 7
ExecutionTime = 3.55 s  ClockTime = 3 s

Time = 400

smoothSolver:  Solving for Ux, Initial residual = 0.00156822, Final residual = 3.62919e-07, No Iterations 5
smoothSolver:  Solving for Uy, Initial residual = 0.00522515, Final residual = 2.87424e-07, No Iterations 6
GAMG:  Solving for p, Initial residual = 0.00771349, Final residual = 9.7008e-07, No Iterations 12
time step continuity errors : sum local = 5.05264e-06, global = -1.23454e-06, cumulative = 2.89476e-05
smoothSolver:  Solving for epsilon, Initial residual = 0.0019398, Final residual = 6.9996e-07, No Iterations 6
smoothSolver:  Solving for k, Initial residual = 0.00308571, Final residual = 4.69713e-07, No Iterations 7
ExecutionTime = 3.62 s  ClockTime = 4 s

streamLine streamlines write:
    seeded 10 particles
    Tracks:10
    Total samples:9805
    Writing data to "/media/suraj/My4TBHD1/git_workspace/ANL/RLLib_Theta/openfoam/multiple_velocity_dynamic_relaxation/postProcessing/sets/streamlines/400"
End

