/*---------------------------------------------------------------------------*\
| =========                 |                                                 |
| \\      /  F ield         | OpenFOAM: The Open Source CFD Toolbox           |
|  \\    /   O peration     | Version:  5.x                                   |
|   \\  /    A nd           | Web:      www.OpenFOAM.org                      |
|    \\/     M anipulation  |                                                 |
\*---------------------------------------------------------------------------*/
Build  : 5.x-7f7d351b741b
Exec   : simpleFoam
Date   : Jun 21 2020
Time   : 16:08:33
Host   : "suraj-MS-7B06"
PID    : 10002
I/O    : uncollated
Case   : /media/suraj/My4TBHD1/git_workspace/ANL/RLLib_Theta/openfoam/multiple_velocity_dynamic_relaxation
nProcs : 1
sigFpe : Enabling floating point exception trapping (FOAM_SIGFPE).
fileModificationChecking : Monitoring run-time modified files using timeStampMaster (fileModificationSkew 10)
allowSystemOperations : Allowing user-supplied system call operations

// * * * * * * * * * * * * * * * * * * * * * * * * * * * * * * * * * * * * * //
Create time

Create mesh for time = 200


SIMPLE: convergence criteria
    field p	 tolerance 0.01
    field U	 tolerance 0.001
    field "(k|epsilon|omega|f|v2)"	 tolerance 0.001

Reading field p

Reading field U

Reading/calculating face flux field phi

Selecting incompressible transport model Newtonian
Selecting turbulence model type RAS
Selecting RAS turbulence model kEpsilon
RAS
{
    RASModel        kEpsilon;
    turbulence      on;
    printCoeffs     on;
    Cmu             0.09;
    C1              1.44;
    C2              1.92;
    C3              0;
    sigmak          1;
    sigmaEps        1.3;
}

No MRF models present

No finite volume options present


Starting time loop

streamLine streamlines:
    automatic track length specified through number of sub cycles : 5

Time = 201

smoothSolver:  Solving for Ux, Initial residual = 0.00164743, Final residual = 1.7154e-07, No Iterations 4
smoothSolver:  Solving for Uy, Initial residual = 0.00734911, Final residual = 8.8188e-07, No Iterations 4
GAMG:  Solving for p, Initial residual = 0.0228965, Final residual = 4.56071e-07, No Iterations 12
time step continuity errors : sum local = 1.39336e-06, global = 1.88672e-07, cumulative = 1.88672e-07
smoothSolver:  Solving for epsilon, Initial residual = 0.00205998, Final residual = 5.63011e-07, No Iterations 6
smoothSolver:  Solving for k, Initial residual = 0.00381717, Final residual = 4.9947e-07, No Iterations 7
ExecutionTime = 0.25 s  ClockTime = 1 s

Time = 202

smoothSolver:  Solving for Ux, Initial residual = 0.00164096, Final residual = 1.71169e-07, No Iterations 4
smoothSolver:  Solving for Uy, Initial residual = 0.00734791, Final residual = 8.8457e-07, No Iterations 4
GAMG:  Solving for p, Initial residual = 0.0239268, Final residual = 4.14273e-07, No Iterations 12
time step continuity errors : sum local = 1.27068e-06, global = 1.53605e-07, cumulative = 3.42278e-07
smoothSolver:  Solving for epsilon, Initial residual = 0.00206756, Final residual = 5.65955e-07, No Iterations 6
smoothSolver:  Solving for k, Initial residual = 0.00380212, Final residual = 4.96056e-07, No Iterations 7
ExecutionTime = 0.28 s  ClockTime = 1 s

Time = 203

smoothSolver:  Solving for Ux, Initial residual = 0.00163583, Final residual = 1.70824e-07, No Iterations 4
smoothSolver:  Solving for Uy, Initial residual = 0.0073534, Final residual = 8.87034e-07, No Iterations 4
GAMG:  Solving for p, Initial residual = 0.0216844, Final residual = 5.80266e-07, No Iterations 12
time step continuity errors : sum local = 1.78731e-06, global = 2.02143e-07, cumulative = 5.4442e-07
smoothSolver:  Solving for epsilon, Initial residual = 0.00207474, Final residual = 5.68894e-07, No Iterations 6
smoothSolver:  Solving for k, Initial residual = 0.00378836, Final residual = 4.92696e-07, No Iterations 7
ExecutionTime = 0.31 s  ClockTime = 1 s

Time = 204

smoothSolver:  Solving for Ux, Initial residual = 0.00162791, Final residual = 1.70429e-07, No Iterations 4
smoothSolver:  Solving for Uy, Initial residual = 0.00734066, Final residual = 8.89668e-07, No Iterations 4
GAMG:  Solving for p, Initial residual = 0.0247523, Final residual = 5.36323e-07, No Iterations 12
time step continuity errors : sum local = 1.65921e-06, global = 1.87386e-07, cumulative = 7.31806e-07
smoothSolver:  Solving for epsilon, Initial residual = 0.00207896, Final residual = 5.71945e-07, No Iterations 6
smoothSolver:  Solving for k, Initial residual = 0.00377307, Final residual = 4.89547e-07, No Iterations 7
ExecutionTime = 0.34 s  ClockTime = 1 s

Time = 205

smoothSolver:  Solving for Ux, Initial residual = 0.0016213, Final residual = 1.7001e-07, No Iterations 4
smoothSolver:  Solving for Uy, Initial residual = 0.00733593, Final residual = 8.92291e-07, No Iterations 4
GAMG:  Solving for p, Initial residual = 0.0184984, Final residual = 3.92533e-07, No Iterations 12
time step continuity errors : sum local = 1.21638e-06, global = 1.30088e-07, cumulative = 8.61894e-07
smoothSolver:  Solving for epsilon, Initial residual = 0.00207666, Final residual = 5.74736e-07, No Iterations 6
smoothSolver:  Solving for k, Initial residual = 0.00375654, Final residual = 4.86267e-07, No Iterations 7
ExecutionTime = 0.37 s  ClockTime = 1 s

Time = 206

smoothSolver:  Solving for Ux, Initial residual = 0.00161507, Final residual = 1.69639e-07, No Iterations 4
smoothSolver:  Solving for Uy, Initial residual = 0.00733075, Final residual = 8.94554e-07, No Iterations 4
GAMG:  Solving for p, Initial residual = 0.0217692, Final residual = 5.29228e-07, No Iterations 12
time step continuity errors : sum local = 1.64283e-06, global = 3.29309e-07, cumulative = 1.1912e-06
smoothSolver:  Solving for epsilon, Initial residual = 0.00210518, Final residual = 5.77409e-07, No Iterations 6
smoothSolver:  Solving for k, Initial residual = 0.00374552, Final residual = 4.832e-07, No Iterations 7
ExecutionTime = 0.4 s  ClockTime = 1 s

Time = 207

smoothSolver:  Solving for Ux, Initial residual = 0.00160913, Final residual = 1.69291e-07, No Iterations 4
smoothSolver:  Solving for Uy, Initial residual = 0.00732308, Final residual = 8.96755e-07, No Iterations 4
GAMG:  Solving for p, Initial residual = 0.0231245, Final residual = 4.55742e-07, No Iterations 12
time step continuity errors : sum local = 1.41919e-06, global = 3.04388e-07, cumulative = 1.49559e-06
smoothSolver:  Solving for epsilon, Initial residual = 0.00210903, Final residual = 5.79982e-07, No Iterations 6
smoothSolver:  Solving for k, Initial residual = 0.00373158, Final residual = 4.80357e-07, No Iterations 7
ExecutionTime = 0.43 s  ClockTime = 1 s

Time = 208

smoothSolver:  Solving for Ux, Initial residual = 0.00160442, Final residual = 1.6898e-07, No Iterations 4
smoothSolver:  Solving for Uy, Initial residual = 0.0073273, Final residual = 8.98619e-07, No Iterations 4
GAMG:  Solving for p, Initial residual = 0.0209792, Final residual = 4.76988e-07, No Iterations 12
time step continuity errors : sum local = 1.49097e-06, global = 1.82836e-07, cumulative = 1.67843e-06
smoothSolver:  Solving for epsilon, Initial residual = 0.00211438, Final residual = 5.82583e-07, No Iterations 6
smoothSolver:  Solving for k, Initial residual = 0.00371848, Final residual = 4.77411e-07, No Iterations 7
ExecutionTime = 0.48 s  ClockTime = 1 s

Time = 209

smoothSolver:  Solving for Ux, Initial residual = 0.00159706, Final residual = 1.68622e-07, No Iterations 4
smoothSolver:  Solving for Uy, Initial residual = 0.00731109, Final residual = 9.00636e-07, No Iterations 4
GAMG:  Solving for p, Initial residual = 0.0239965, Final residual = 4.23451e-07, No Iterations 12
time step continuity errors : sum local = 1.32905e-06, global = 1.63902e-07, cumulative = 1.84233e-06
smoothSolver:  Solving for epsilon, Initial residual = 0.00211561, Final residual = 5.85018e-07, No Iterations 6
smoothSolver:  Solving for k, Initial residual = 0.00370354, Final residual = 4.74628e-07, No Iterations 7
ExecutionTime = 0.5 s  ClockTime = 1 s

Time = 210

smoothSolver:  Solving for Ux, Initial residual = 0.00159082, Final residual = 1.68245e-07, No Iterations 4
smoothSolver:  Solving for Uy, Initial residual = 0.0073027, Final residual = 9.02591e-07, No Iterations 4
GAMG:  Solving for p, Initial residual = 0.0176972, Final residual = 3.89174e-07, No Iterations 12
time step continuity errors : sum local = 1.22292e-06, global = 1.83722e-07, cumulative = 2.02605e-06
smoothSolver:  Solving for epsilon, Initial residual = 0.00211164, Final residual = 5.87331e-07, No Iterations 6
smoothSolver:  Solving for k, Initial residual = 0.00368803, Final residual = 4.71843e-07, No Iterations 7
ExecutionTime = 0.54 s  ClockTime = 1 s

Time = 211

smoothSolver:  Solving for Ux, Initial residual = 0.00158489, Final residual = 1.67907e-07, No Iterations 4
smoothSolver:  Solving for Uy, Initial residual = 0.00729374, Final residual = 9.0443e-07, No Iterations 4
GAMG:  Solving for p, Initial residual = 0.0209713, Final residual = 6.18668e-07, No Iterations 12
time step continuity errors : sum local = 1.94675e-06, global = 5.78342e-07, cumulative = 2.60439e-06
smoothSolver:  Solving for epsilon, Initial residual = 0.0021292, Final residual = 5.89499e-07, No Iterations 6
smoothSolver:  Solving for k, Initial residual = 0.00367834, Final residual = 4.69398e-07, No Iterations 7
ExecutionTime = 0.57 s  ClockTime = 1 s

Time = 212

smoothSolver:  Solving for Ux, Initial residual = 0.00157945, Final residual = 1.676e-07, No Iterations 4
smoothSolver:  Solving for Uy, Initial residual = 0.00728474, Final residual = 9.05778e-07, No Iterations 4
GAMG:  Solving for p, Initial residual = 0.0182216, Final residual = 3.30535e-07, No Iterations 12
time step continuity errors : sum local = 1.04416e-06, global = 1.17309e-07, cumulative = 2.7217e-06
smoothSolver:  Solving for epsilon, Initial residual = 0.00212611, Final residual = 5.91718e-07, No Iterations 6
smoothSolver:  Solving for k, Initial residual = 0.00366333, Final residual = 4.66825e-07, No Iterations 7
ExecutionTime = 0.6 s  ClockTime = 1 s

Time = 213

smoothSolver:  Solving for Ux, Initial residual = 0.00157291, Final residual = 1.67269e-07, No Iterations 4
smoothSolver:  Solving for Uy, Initial residual = 0.00727027, Final residual = 9.0727e-07, No Iterations 4
GAMG:  Solving for p, Initial residual = 0.020639, Final residual = 3.51076e-07, No Iterations 12
time step continuity errors : sum local = 1.11326e-06, global = 1.39447e-07, cumulative = 2.86115e-06
smoothSolver:  Solving for epsilon, Initial residual = 0.00212745, Final residual = 5.93854e-07, No Iterations 6
smoothSolver:  Solving for k, Initial residual = 0.00364938, Final residual = 4.64337e-07, No Iterations 7
ExecutionTime = 0.63 s  ClockTime = 1 s

Time = 214

smoothSolver:  Solving for Ux, Initial residual = 0.00156761, Final residual = 1.66916e-07, No Iterations 4
smoothSolver:  Solving for Uy, Initial residual = 0.00726173, Final residual = 9.08941e-07, No Iterations 4
GAMG:  Solving for p, Initial residual = 0.0165907, Final residual = 3.99103e-07, No Iterations 12
time step continuity errors : sum local = 1.26729e-06, global = 2.55737e-07, cumulative = 3.11689e-06
smoothSolver:  Solving for epsilon, Initial residual = 0.00213197, Final residual = 5.95743e-07, No Iterations 6
smoothSolver:  Solving for k, Initial residual = 0.00363618, Final residual = 4.61956e-07, No Iterations 7
ExecutionTime = 0.66 s  ClockTime = 1 s

Time = 215

smoothSolver:  Solving for Ux, Initial residual = 0.00156217, Final residual = 1.66603e-07, No Iterations 4
smoothSolver:  Solving for Uy, Initial residual = 0.00725153, Final residual = 9.10191e-07, No Iterations 4
GAMG:  Solving for p, Initial residual = 0.0206804, Final residual = 5.08149e-07, No Iterations 12
time step continuity errors : sum local = 1.61658e-06, global = 5.06561e-07, cumulative = 3.62345e-06
smoothSolver:  Solving for epsilon, Initial residual = 0.00214806, Final residual = 5.97451e-07, No Iterations 6
smoothSolver:  Solving for k, Initial residual = 0.00362522, Final residual = 4.5958e-07, No Iterations 7
ExecutionTime = 0.69 s  ClockTime = 1 s

Time = 216

smoothSolver:  Solving for Ux, Initial residual = 0.00155702, Final residual = 1.66311e-07, No Iterations 4
smoothSolver:  Solving for Uy, Initial residual = 0.00723977, Final residual = 9.11032e-07, No Iterations 4
GAMG:  Solving for p, Initial residual = 0.0174987, Final residual = 3.33501e-07, No Iterations 12
time step continuity errors : sum local = 1.065e-06, global = 1.48467e-07, cumulative = 3.77191e-06
smoothSolver:  Solving for epsilon, Initial residual = 0.00214874, Final residual = 5.99231e-07, No Iterations 6
smoothSolver:  Solving for k, Initial residual = 0.00361169, Final residual = 4.57435e-07, No Iterations 7
ExecutionTime = 0.72 s  ClockTime = 1 s

Time = 217

smoothSolver:  Solving for Ux, Initial residual = 0.00155074, Final residual = 1.66008e-07, No Iterations 4
smoothSolver:  Solving for Uy, Initial residual = 0.00722269, Final residual = 9.12199e-07, No Iterations 4
GAMG:  Solving for p, Initial residual = 0.0200854, Final residual = 3.43416e-07, No Iterations 12
time step continuity errors : sum local = 1.1011e-06, global = 1.83961e-07, cumulative = 3.95588e-06
smoothSolver:  Solving for epsilon, Initial residual = 0.0021475, Final residual = 6.00894e-07, No Iterations 6
smoothSolver:  Solving for k, Initial residual = 0.00359796, Final residual = 4.5516e-07, No Iterations 7
ExecutionTime = 0.76 s  ClockTime = 1 s

Time = 218

smoothSolver:  Solving for Ux, Initial residual = 0.00154569, Final residual = 1.65681e-07, No Iterations 4
smoothSolver:  Solving for Uy, Initial residual = 0.007213, Final residual = 9.13558e-07, No Iterations 4
GAMG:  Solving for p, Initial residual = 0.016265, Final residual = 4.53425e-07, No Iterations 12
time step continuity errors : sum local = 1.45574e-06, global = 3.99475e-07, cumulative = 4.35535e-06
smoothSolver:  Solving for epsilon, Initial residual = 0.00214901, Final residual = 6.02349e-07, No Iterations 6
smoothSolver:  Solving for k, Initial residual = 0.00358419, Final residual = 4.53092e-07, No Iterations 7
ExecutionTime = 0.79 s  ClockTime = 1 s

Time = 219

smoothSolver:  Solving for Ux, Initial residual = 0.00154026, Final residual = 1.65382e-07, No Iterations 4
smoothSolver:  Solving for Uy, Initial residual = 0.00720122, Final residual = 9.14442e-07, No Iterations 4
GAMG:  Solving for p, Initial residual = 0.0203575, Final residual = 9.52254e-07, No Iterations 11
time step continuity errors : sum local = 3.06222e-06, global = -7.42178e-07, cumulative = 3.61317e-06
smoothSolver:  Solving for epsilon, Initial residual = 0.00215775, Final residual = 6.0372e-07, No Iterations 6
smoothSolver:  Solving for k, Initial residual = 0.00357321, Final residual = 4.50955e-07, No Iterations 7
ExecutionTime = 0.82 s  ClockTime = 1 s

Time = 220

smoothSolver:  Solving for Ux, Initial residual = 0.00153537, Final residual = 1.65102e-07, No Iterations 4
smoothSolver:  Solving for Uy, Initial residual = 0.00718688, Final residual = 9.14861e-07, No Iterations 4
GAMG:  Solving for p, Initial residual = 0.0168614, Final residual = 8.62721e-07, No Iterations 11
time step continuity errors : sum local = 2.78459e-06, global = -7.62566e-07, cumulative = 2.85061e-06
smoothSolver:  Solving for epsilon, Initial residual = 0.00215319, Final residual = 6.05205e-07, No Iterations 6
smoothSolver:  Solving for k, Initial residual = 0.00355814, Final residual = 4.49105e-07, No Iterations 7
ExecutionTime = 0.84 s  ClockTime = 1 s

Time = 221

smoothSolver:  Solving for Ux, Initial residual = 0.00152929, Final residual = 1.648e-07, No Iterations 4
smoothSolver:  Solving for Uy, Initial residual = 0.00717016, Final residual = 9.15515e-07, No Iterations 4
GAMG:  Solving for p, Initial residual = 0.0195868, Final residual = 8.24968e-07, No Iterations 11
time step continuity errors : sum local = 2.67296e-06, global = -6.72552e-07, cumulative = 2.17805e-06
smoothSolver:  Solving for epsilon, Initial residual = 0.00214511, Final residual = 6.06505e-07, No Iterations 6
smoothSolver:  Solving for k, Initial residual = 0.0035439, Final residual = 4.47116e-07, No Iterations 7
ExecutionTime = 0.87 s  ClockTime = 1 s

Time = 222

smoothSolver:  Solving for Ux, Initial residual = 0.00152457, Final residual = 1.64477e-07, No Iterations 4
smoothSolver:  Solving for Uy, Initial residual = 0.00715807, Final residual = 9.16271e-07, No Iterations 4
GAMG:  Solving for p, Initial residual = 0.0156798, Final residual = 4.32169e-07, No Iterations 12
time step continuity errors : sum local = 1.40182e-06, global = 4.29676e-07, cumulative = 2.60773e-06
smoothSolver:  Solving for epsilon, Initial residual = 0.00214563, Final residual = 6.07557e-07, No Iterations 6
smoothSolver:  Solving for k, Initial residual = 0.00353008, Final residual = 4.45246e-07, No Iterations 7
ExecutionTime = 0.91 s  ClockTime = 1 s

Time = 223

smoothSolver:  Solving for Ux, Initial residual = 0.00151953, Final residual = 1.64189e-07, No Iterations 4
smoothSolver:  Solving for Uy, Initial residual = 0.0071411, Final residual = 9.16671e-07, No Iterations 4
GAMG:  Solving for p, Initial residual = 0.0197698, Final residual = 8.41844e-07, No Iterations 11
time step continuity errors : sum local = 2.73475e-06, global = -7.06687e-07, cumulative = 1.90104e-06
smoothSolver:  Solving for epsilon, Initial residual = 0.00215235, Final residual = 6.08584e-07, No Iterations 6
smoothSolver:  Solving for k, Initial residual = 0.00351891, Final residual = 4.43401e-07, No Iterations 7
ExecutionTime = 0.94 s  ClockTime = 1 s

Time = 224

smoothSolver:  Solving for Ux, Initial residual = 0.00151479, Final residual = 1.63938e-07, No Iterations 4
smoothSolver:  Solving for Uy, Initial residual = 0.0071251, Final residual = 9.16715e-07, No Iterations 4
GAMG:  Solving for p, Initial residual = 0.0165927, Final residual = 7.17537e-07, No Iterations 11
time step continuity errors : sum local = 2.33983e-06, global = -5.96762e-07, cumulative = 1.30428e-06
smoothSolver:  Solving for epsilon, Initial residual = 0.00214862, Final residual = 6.09612e-07, No Iterations 6
smoothSolver:  Solving for k, Initial residual = 0.00350441, Final residual = 4.41755e-07, No Iterations 7
ExecutionTime = 0.97 s  ClockTime = 1 s

Time = 225

smoothSolver:  Solving for Ux, Initial residual = 0.00150879, Final residual = 1.63659e-07, No Iterations 4
smoothSolver:  Solving for Uy, Initial residual = 0.00710647, Final residual = 9.17115e-07, No Iterations 4
GAMG:  Solving for p, Initial residual = 0.019401, Final residual = 6.87626e-07, No Iterations 11
time step continuity errors : sum local = 2.24996e-06, global = -5.04305e-07, cumulative = 7.99976e-07
smoothSolver:  Solving for epsilon, Initial residual = 0.00214429, Final residual = 6.10477e-07, No Iterations 6
smoothSolver:  Solving for k, Initial residual = 0.00349058, Final residual = 4.40053e-07, No Iterations 7
ExecutionTime = 1 s  ClockTime = 1 s

Time = 226

smoothSolver:  Solving for Ux, Initial residual = 0.00150408, Final residual = 1.63356e-07, No Iterations 4
smoothSolver:  Solving for Uy, Initial residual = 0.00709351, Final residual = 9.17592e-07, No Iterations 4
GAMG:  Solving for p, Initial residual = 0.0154496, Final residual = 9.00585e-07, No Iterations 11
time step continuity errors : sum local = 2.94918e-06, global = -6.71602e-07, cumulative = 1.28375e-07
smoothSolver:  Solving for epsilon, Initial residual = 0.00214308, Final residual = 6.11241e-07, No Iterations 6
smoothSolver:  Solving for k, Initial residual = 0.00347734, Final residual = 4.38521e-07, No Iterations 7
ExecutionTime = 1.04 s  ClockTime = 1 s

Time = 227

smoothSolver:  Solving for Ux, Initial residual = 0.00149905, Final residual = 1.63068e-07, No Iterations 4
smoothSolver:  Solving for Uy, Initial residual = 0.00707597, Final residual = 9.17521e-07, No Iterations 4
GAMG:  Solving for p, Initial residual = 0.0195511, Final residual = 7.19346e-07, No Iterations 11
time step continuity errors : sum local = 2.35851e-06, global = -5.95445e-07, cumulative = -4.6707e-07
smoothSolver:  Solving for epsilon, Initial residual = 0.00214846, Final residual = 6.11936e-07, No Iterations 6
smoothSolver:  Solving for k, Initial residual = 0.00346583, Final residual = 4.36926e-07, No Iterations 7
ExecutionTime = 1.07 s  ClockTime = 2 s

Time = 228

smoothSolver:  Solving for Ux, Initial residual = 0.00149443, Final residual = 1.628e-07, No Iterations 4
smoothSolver:  Solving for Uy, Initial residual = 0.00705698, Final residual = 9.17002e-07, No Iterations 4
GAMG:  Solving for p, Initial residual = 0.0162307, Final residual = 6.32431e-07, No Iterations 11
time step continuity errors : sum local = 2.08093e-06, global = -4.93557e-07, cumulative = -9.60627e-07
smoothSolver:  Solving for epsilon, Initial residual = 0.00214315, Final residual = 6.12604e-07, No Iterations 6
smoothSolver:  Solving for k, Initial residual = 0.00345161, Final residual = 4.35502e-07, No Iterations 7
ExecutionTime = 1.09 s  ClockTime = 2 s

Time = 229

smoothSolver:  Solving for Ux, Initial residual = 0.00148887, Final residual = 1.62522e-07, No Iterations 4
smoothSolver:  Solving for Uy, Initial residual = 0.00703623, Final residual = 9.16984e-07, No Iterations 4
GAMG:  Solving for p, Initial residual = 0.0188583, Final residual = 5.83254e-07, No Iterations 11
time step continuity errors : sum local = 1.92648e-06, global = -3.6793e-07, cumulative = -1.32856e-06
smoothSolver:  Solving for epsilon, Initial residual = 0.00213479, Final residual = 6.13072e-07, No Iterations 6
smoothSolver:  Solving for k, Initial residual = 0.0034373, Final residual = 4.34231e-07, No Iterations 7
ExecutionTime = 1.12 s  ClockTime = 2 s

Time = 230

smoothSolver:  Solving for Ux, Initial residual = 0.00148455, Final residual = 1.62221e-07, No Iterations 4
smoothSolver:  Solving for Uy, Initial residual = 0.0070223, Final residual = 9.17149e-07, No Iterations 4
GAMG:  Solving for p, Initial residual = 0.0148538, Final residual = 7.3321e-07, No Iterations 11
time step continuity errors : sum local = 2.42474e-06, global = -6.54536e-07, cumulative = -1.98309e-06
smoothSolver:  Solving for epsilon, Initial residual = 0.00213238, Final residual = 6.13432e-07, No Iterations 6
smoothSolver:  Solving for k, Initial residual = 0.00342356, Final residual = 4.32995e-07, No Iterations 7
ExecutionTime = 1.15 s  ClockTime = 2 s

Time = 231

smoothSolver:  Solving for Ux, Initial residual = 0.00147976, Final residual = 1.61958e-07, No Iterations 4
smoothSolver:  Solving for Uy, Initial residual = 0.00700361, Final residual = 9.16794e-07, No Iterations 4
GAMG:  Solving for p, Initial residual = 0.0189612, Final residual = 6.33555e-07, No Iterations 11
time step continuity errors : sum local = 2.09838e-06, global = -4.88471e-07, cumulative = -2.47156e-06
smoothSolver:  Solving for epsilon, Initial residual = 0.00213611, Final residual = 6.13767e-07, No Iterations 6
smoothSolver:  Solving for k, Initial residual = 0.00341176, Final residual = 4.31818e-07, No Iterations 7
ExecutionTime = 1.18 s  ClockTime = 2 s

Time = 232

smoothSolver:  Solving for Ux, Initial residual = 0.00147526, Final residual = 1.61725e-07, No Iterations 4
smoothSolver:  Solving for Uy, Initial residual = 0.00698315, Final residual = 9.15983e-07, No Iterations 4
GAMG:  Solving for p, Initial residual = 0.01572, Final residual = 6.28674e-07, No Iterations 11
time step continuity errors : sum local = 2.09021e-06, global = -4.80553e-07, cumulative = -2.95212e-06
smoothSolver:  Solving for epsilon, Initial residual = 0.0021298, Final residual = 6.13988e-07, No Iterations 6
smoothSolver:  Solving for k, Initial residual = 0.00339728, Final residual = 4.30714e-07, No Iterations 7
ExecutionTime = 1.21 s  ClockTime = 2 s

Time = 233

smoothSolver:  Solving for Ux, Initial residual = 0.00146961, Final residual = 1.61463e-07, No Iterations 4
smoothSolver:  Solving for Uy, Initial residual = 0.00696151, Final residual = 9.15631e-07, No Iterations 4
GAMG:  Solving for p, Initial residual = 0.018425, Final residual = 5.79735e-07, No Iterations 11
time step continuity errors : sum local = 1.93496e-06, global = -2.13587e-07, cumulative = -3.1657e-06
smoothSolver:  Solving for epsilon, Initial residual = 0.00212413, Final residual = 6.14155e-07, No Iterations 6
smoothSolver:  Solving for k, Initial residual = 0.00338347, Final residual = 4.29697e-07, No Iterations 7
ExecutionTime = 1.24 s  ClockTime = 2 s

Time = 234

smoothSolver:  Solving for Ux, Initial residual = 0.00146461, Final residual = 1.61186e-07, No Iterations 4
smoothSolver:  Solving for Uy, Initial residual = 0.00694147, Final residual = 9.15162e-07, No Iterations 4
GAMG:  Solving for p, Initial residual = 0.0179296, Final residual = 5.51009e-07, No Iterations 11
time step continuity errors : sum local = 1.8446e-06, global = -3.82049e-07, cumulative = -3.54775e-06
smoothSolver:  Solving for epsilon, Initial residual = 0.00212524, Final residual = 6.14228e-07, No Iterations 6
smoothSolver:  Solving for k, Initial residual = 0.00336921, Final residual = 4.28587e-07, No Iterations 7
ExecutionTime = 1.27 s  ClockTime = 2 s

Time = 235

smoothSolver:  Solving for Ux, Initial residual = 0.00146114, Final residual = 1.60889e-07, No Iterations 4
smoothSolver:  Solving for Uy, Initial residual = 0.00692807, Final residual = 9.14454e-07, No Iterations 4
GAMG:  Solving for p, Initial residual = 0.015893, Final residual = 6.42428e-07, No Iterations 11
time step continuity errors : sum local = 2.1513e-06, global = -5.63967e-07, cumulative = -4.11172e-06
smoothSolver:  Solving for epsilon, Initial residual = 0.00213356, Final residual = 6.1428e-07, No Iterations 6
smoothSolver:  Solving for k, Initial residual = 0.00335858, Final residual = 4.27396e-07, No Iterations 7
ExecutionTime = 1.31 s  ClockTime = 2 s

Time = 236

smoothSolver:  Solving for Ux, Initial residual = 0.00145707, Final residual = 1.60625e-07, No Iterations 4
smoothSolver:  Solving for Uy, Initial residual = 0.00690688, Final residual = 9.13456e-07, No Iterations 4
GAMG:  Solving for p, Initial residual = 0.0234165, Final residual = 5.68595e-07, No Iterations 11
time step continuity errors : sum local = 1.90669e-06, global = -3.4957e-07, cumulative = -4.46129e-06
smoothSolver:  Solving for epsilon, Initial residual = 0.00213605, Final residual = 6.14129e-07, No Iterations 6
smoothSolver:  Solving for k, Initial residual = 0.00334711, Final residual = 4.26274e-07, No Iterations 7
ExecutionTime = 1.33 s  ClockTime = 2 s

Time = 237

smoothSolver:  Solving for Ux, Initial residual = 0.00145235, Final residual = 1.60368e-07, No Iterations 4
smoothSolver:  Solving for Uy, Initial residual = 0.00688156, Final residual = 9.12372e-07, No Iterations 4
GAMG:  Solving for p, Initial residual = 0.0155721, Final residual = 6.62098e-07, No Iterations 11
time step continuity errors : sum local = 2.22809e-06, global = -3.53437e-07, cumulative = -4.81473e-06
smoothSolver:  Solving for epsilon, Initial residual = 0.00211233, Final residual = 6.1387e-07, No Iterations 6
smoothSolver:  Solving for k, Initial residual = 0.00333125, Final residual = 4.25187e-07, No Iterations 7
ExecutionTime = 1.36 s  ClockTime = 2 s

Time = 238

smoothSolver:  Solving for Ux, Initial residual = 0.00144677, Final residual = 1.60118e-07, No Iterations 4
smoothSolver:  Solving for Uy, Initial residual = 0.00685776, Final residual = 9.11653e-07, No Iterations 4
GAMG:  Solving for p, Initial residual = 0.0188876, Final residual = 6.96818e-07, No Iterations 11
time step continuity errors : sum local = 2.35278e-06, global = 4.14629e-07, cumulative = -4.4001e-06
smoothSolver:  Solving for epsilon, Initial residual = 0.00211084, Final residual = 6.13522e-07, No Iterations 6
smoothSolver:  Solving for k, Initial residual = 0.00331727, Final residual = 4.24055e-07, No Iterations 7
ExecutionTime = 1.39 s  ClockTime = 2 s

Time = 239

smoothSolver:  Solving for Ux, Initial residual = 0.00144199, Final residual = 1.59855e-07, No Iterations 4
smoothSolver:  Solving for Uy, Initial residual = 0.00683681, Final residual = 9.10806e-07, No Iterations 4
GAMG:  Solving for p, Initial residual = 0.0183986, Final residual = 4.87375e-07, No Iterations 11
time step continuity errors : sum local = 1.65051e-06, global = -3.57636e-07, cumulative = -4.75773e-06
smoothSolver:  Solving for epsilon, Initial residual = 0.00210908, Final residual = 6.13241e-07, No Iterations 6
smoothSolver:  Solving for k, Initial residual = 0.00330353, Final residual = 4.22847e-07, No Iterations 7
ExecutionTime = 1.42 s  ClockTime = 2 s

Time = 240

smoothSolver:  Solving for Ux, Initial residual = 0.00143923, Final residual = 1.59591e-07, No Iterations 4
smoothSolver:  Solving for Uy, Initial residual = 0.00682482, Final residual = 9.09701e-07, No Iterations 4
GAMG:  Solving for p, Initial residual = 0.0178399, Final residual = 6.05113e-07, No Iterations 11
time step continuity errors : sum local = 2.05006e-06, global = -5.25564e-07, cumulative = -5.2833e-06
smoothSolver:  Solving for epsilon, Initial residual = 0.00210886, Final residual = 6.12845e-07, No Iterations 6
smoothSolver:  Solving for k, Initial residual = 0.00329096, Final residual = 4.21684e-07, No Iterations 7
ExecutionTime = 1.45 s  ClockTime = 2 s

Time = 241

smoothSolver:  Solving for Ux, Initial residual = 0.00143436, Final residual = 1.59335e-07, No Iterations 4
smoothSolver:  Solving for Uy, Initial residual = 0.00679611, Final residual = 9.08309e-07, No Iterations 4
GAMG:  Solving for p, Initial residual = 0.0199964, Final residual = 7.59837e-07, No Iterations 11
time step continuity errors : sum local = 2.57827e-06, global = -6.64668e-07, cumulative = -5.94796e-06
smoothSolver:  Solving for epsilon, Initial residual = 0.00210104, Final residual = 6.12389e-07, No Iterations 6
smoothSolver:  Solving for k, Initial residual = 0.00327865, Final residual = 4.2057e-07, No Iterations 7
ExecutionTime = 1.49 s  ClockTime = 2 s

Time = 242

smoothSolver:  Solving for Ux, Initial residual = 0.00142974, Final residual = 1.59085e-07, No Iterations 4
smoothSolver:  Solving for Uy, Initial residual = 0.00676948, Final residual = 9.06424e-07, No Iterations 4
GAMG:  Solving for p, Initial residual = 0.0156606, Final residual = 7.14617e-07, No Iterations 11
time step continuity errors : sum local = 2.43111e-06, global = -5.6578e-07, cumulative = -6.51374e-06
smoothSolver:  Solving for epsilon, Initial residual = 0.00208936, Final residual = 6.11801e-07, No Iterations 6
smoothSolver:  Solving for k, Initial residual = 0.00326284, Final residual = 4.19407e-07, No Iterations 7
ExecutionTime = 1.52 s  ClockTime = 2 s

Time = 243

smoothSolver:  Solving for Ux, Initial residual = 0.00142481, Final residual = 1.58831e-07, No Iterations 4
smoothSolver:  Solving for Uy, Initial residual = 0.00674723, Final residual = 9.05083e-07, No Iterations 4
GAMG:  Solving for p, Initial residual = 0.0196238, Final residual = 6.81287e-07, No Iterations 11
time step continuity errors : sum local = 2.3257e-06, global = 3.39611e-07, cumulative = -6.17413e-06
smoothSolver:  Solving for epsilon, Initial residual = 0.00208196, Final residual = 6.11199e-07, No Iterations 6
smoothSolver:  Solving for k, Initial residual = 0.00324827, Final residual = 4.18197e-07, No Iterations 7
ExecutionTime = 1.55 s  ClockTime = 2 s

Time = 244

smoothSolver:  Solving for Ux, Initial residual = 0.00142005, Final residual = 1.58548e-07, No Iterations 4
smoothSolver:  Solving for Uy, Initial residual = 0.00672286, Final residual = 9.03948e-07, No Iterations 4
GAMG:  Solving for p, Initial residual = 0.0177002, Final residual = 9.46405e-07, No Iterations 10
time step continuity errors : sum local = 3.24219e-06, global = 3.32628e-07, cumulative = -5.84151e-06
smoothSolver:  Solving for epsilon, Initial residual = 0.00206773, Final residual = 6.10535e-07, No Iterations 6
smoothSolver:  Solving for k, Initial residual = 0.00323284, Final residual = 4.16968e-07, No Iterations 7
ExecutionTime = 1.58 s  ClockTime = 2 s

Time = 245

smoothSolver:  Solving for Ux, Initial residual = 0.00141691, Final residual = 1.58276e-07, No Iterations 4
smoothSolver:  Solving for Uy, Initial residual = 0.00670557, Final residual = 9.0257e-07, No Iterations 4
GAMG:  Solving for p, Initial residual = 0.0161596, Final residual = 6.08512e-07, No Iterations 11
time step continuity errors : sum local = 2.08461e-06, global = -5.33328e-07, cumulative = -6.37483e-06
smoothSolver:  Solving for epsilon, Initial residual = 0.00206994, Final residual = 6.09801e-07, No Iterations 6
smoothSolver:  Solving for k, Initial residual = 0.00322071, Final residual = 4.1583e-07, No Iterations 7
ExecutionTime = 1.61 s  ClockTime = 2 s

Time = 246

smoothSolver:  Solving for Ux, Initial residual = 0.0014128, Final residual = 1.58032e-07, No Iterations 4
smoothSolver:  Solving for Uy, Initial residual = 0.00667859, Final residual = 9.00558e-07, No Iterations 4
GAMG:  Solving for p, Initial residual = 0.0211474, Final residual = 9.61212e-07, No Iterations 11
time step continuity errors : sum local = 3.29598e-06, global = -9.4987e-07, cumulative = -7.3247e-06
smoothSolver:  Solving for epsilon, Initial residual = 0.0020681, Final residual = 6.08959e-07, No Iterations 6
smoothSolver:  Solving for k, Initial residual = 0.00320806, Final residual = 4.14672e-07, No Iterations 7
ExecutionTime = 1.64 s  ClockTime = 2 s

Time = 247

smoothSolver:  Solving for Ux, Initial residual = 0.00140838, Final residual = 1.57782e-07, No Iterations 4
smoothSolver:  Solving for Uy, Initial residual = 0.00664835, Final residual = 8.98218e-07, No Iterations 4
GAMG:  Solving for p, Initial residual = 0.0146642, Final residual = 5.76967e-07, No Iterations 11
time step continuity errors : sum local = 1.98485e-06, global = -5.02581e-07, cumulative = -7.82728e-06
smoothSolver:  Solving for epsilon, Initial residual = 0.00204603, Final residual = 6.08159e-07, No Iterations 6
smoothSolver:  Solving for k, Initial residual = 0.0031917, Final residual = 4.13472e-07, No Iterations 7
ExecutionTime = 1.67 s  ClockTime = 2 s

Time = 248

smoothSolver:  Solving for Ux, Initial residual = 0.00140305, Final residual = 1.57545e-07, No Iterations 4
smoothSolver:  Solving for Uy, Initial residual = 0.00662009, Final residual = 8.96378e-07, No Iterations 4
GAMG:  Solving for p, Initial residual = 0.0183571, Final residual = 7.52976e-07, No Iterations 11
time step continuity errors : sum local = 2.59876e-06, global = -5.73007e-07, cumulative = -8.40029e-06
smoothSolver:  Solving for epsilon, Initial residual = 0.00204471, Final residual = 6.07294e-07, No Iterations 6
smoothSolver:  Solving for k, Initial residual = 0.00317723, Final residual = 4.12232e-07, No Iterations 7
ExecutionTime = 1.7 s  ClockTime = 2 s

Time = 249

smoothSolver:  Solving for Ux, Initial residual = 0.00139898, Final residual = 1.5729e-07, No Iterations 4
smoothSolver:  Solving for Uy, Initial residual = 0.00659679, Final residual = 8.94494e-07, No Iterations 4
GAMG:  Solving for p, Initial residual = 0.0185079, Final residual = 4.00355e-07, No Iterations 11
time step continuity errors : sum local = 1.38617e-06, global = -3.23938e-07, cumulative = -8.72423e-06
smoothSolver:  Solving for epsilon, Initial residual = 0.00203757, Final residual = 6.06262e-07, No Iterations 6
smoothSolver:  Solving for k, Initial residual = 0.00316284, Final residual = 4.11072e-07, No Iterations 7
ExecutionTime = 1.73 s  ClockTime = 2 s

Time = 250

smoothSolver:  Solving for Ux, Initial residual = 0.00139594, Final residual = 1.57014e-07, No Iterations 4
smoothSolver:  Solving for Uy, Initial residual = 0.00657787, Final residual = 8.92632e-07, No Iterations 4
GAMG:  Solving for p, Initial residual = 0.0148962, Final residual = 8.38372e-07, No Iterations 11
time step continuity errors : sum local = 2.90483e-06, global = -8.05241e-07, cumulative = -9.52947e-06
smoothSolver:  Solving for epsilon, Initial residual = 0.00202788, Final residual = 6.05284e-07, No Iterations 6
smoothSolver:  Solving for k, Initial residual = 0.00315007, Final residual = 4.0993e-07, No Iterations 7
ExecutionTime = 1.77 s  ClockTime = 2 s

Time = 251

smoothSolver:  Solving for Ux, Initial residual = 0.00139154, Final residual = 1.56759e-07, No Iterations 4
smoothSolver:  Solving for Uy, Initial residual = 0.00654569, Final residual = 8.90098e-07, No Iterations 4
GAMG:  Solving for p, Initial residual = 0.0200783, Final residual = 9.9041e-07, No Iterations 11
time step continuity errors : sum local = 3.43281e-06, global = -9.51582e-07, cumulative = -1.04811e-05
smoothSolver:  Solving for epsilon, Initial residual = 0.00202837, Final residual = 6.04187e-07, No Iterations 6
smoothSolver:  Solving for k, Initial residual = 0.00313769, Final residual = 4.08752e-07, No Iterations 7
ExecutionTime = 1.8 s  ClockTime = 2 s

Time = 252

smoothSolver:  Solving for Ux, Initial residual = 0.00138763, Final residual = 1.56517e-07, No Iterations 4
smoothSolver:  Solving for Uy, Initial residual = 0.00651402, Final residual = 8.87261e-07, No Iterations 4
GAMG:  Solving for p, Initial residual = 0.0157051, Final residual = 5.03982e-07, No Iterations 11
time step continuity errors : sum local = 1.75144e-06, global = -4.42197e-07, cumulative = -1.09232e-05
smoothSolver:  Solving for epsilon, Initial residual = 0.00201104, Final residual = 6.0297e-07, No Iterations 6
smoothSolver:  Solving for k, Initial residual = 0.00312164, Final residual = 4.07544e-07, No Iterations 7
ExecutionTime = 1.83 s  ClockTime = 2 s

Time = 253

smoothSolver:  Solving for Ux, Initial residual = 0.00138255, Final residual = 1.56265e-07, No Iterations 4
smoothSolver:  Solving for Uy, Initial residual = 0.0064813, Final residual = 8.84753e-07, No Iterations 4
GAMG:  Solving for p, Initial residual = 0.0172594, Final residual = 5.57245e-07, No Iterations 11
time step continuity errors : sum local = 1.94385e-06, global = -4.96384e-07, cumulative = -1.14196e-05
smoothSolver:  Solving for epsilon, Initial residual = 0.00199839, Final residual = 6.01695e-07, No Iterations 6
smoothSolver:  Solving for k, Initial residual = 0.00310676, Final residual = 4.06416e-07, No Iterations 7
ExecutionTime = 1.86 s  ClockTime = 2 s

Time = 254

smoothSolver:  Solving for Ux, Initial residual = 0.00137823, Final residual = 1.56006e-07, No Iterations 4
smoothSolver:  Solving for Uy, Initial residual = 0.00645118, Final residual = 8.8198e-07, No Iterations 4
GAMG:  Solving for p, Initial residual = 0.0174957, Final residual = 4.91856e-07, No Iterations 11
time step continuity errors : sum local = 1.7203e-06, global = -3.9751e-07, cumulative = -1.18171e-05
smoothSolver:  Solving for epsilon, Initial residual = 0.00199374, Final residual = 6.00534e-07, No Iterations 6
smoothSolver:  Solving for k, Initial residual = 0.0030926, Final residual = 4.05286e-07, No Iterations 7
ExecutionTime = 1.89 s  ClockTime = 2 s

Time = 255

smoothSolver:  Solving for Ux, Initial residual = 0.00137584, Final residual = 1.55739e-07, No Iterations 4
smoothSolver:  Solving for Uy, Initial residual = 0.00642894, Final residual = 8.78918e-07, No Iterations 4
GAMG:  Solving for p, Initial residual = 0.0158131, Final residual = 9.50236e-07, No Iterations 11
time step continuity errors : sum local = 3.32368e-06, global = -8.12973e-07, cumulative = -1.26301e-05
smoothSolver:  Solving for epsilon, Initial residual = 0.0019894, Final residual = 5.9924e-07, No Iterations 6
smoothSolver:  Solving for k, Initial residual = 0.00308034, Final residual = 4.04116e-07, No Iterations 7
ExecutionTime = 1.92 s  ClockTime = 2 s

Time = 256

smoothSolver:  Solving for Ux, Initial residual = 0.00137161, Final residual = 1.55487e-07, No Iterations 4
smoothSolver:  Solving for Uy, Initial residual = 0.0063906, Final residual = 8.75617e-07, No Iterations 4
GAMG:  Solving for p, Initial residual = 0.0188454, Final residual = 9.46154e-07, No Iterations 11
time step continuity errors : sum local = 3.31274e-06, global = -8.94088e-07, cumulative = -1.35242e-05
smoothSolver:  Solving for epsilon, Initial residual = 0.00198474, Final residual = 5.97851e-07, No Iterations 6
smoothSolver:  Solving for k, Initial residual = 0.0030682, Final residual = 4.02921e-07, No Iterations 7
ExecutionTime = 1.94 s  ClockTime = 2 s

Time = 257

smoothSolver:  Solving for Ux, Initial residual = 0.00136759, Final residual = 1.55254e-07, No Iterations 4
smoothSolver:  Solving for Uy, Initial residual = 0.00635431, Final residual = 8.7182e-07, No Iterations 4
GAMG:  Solving for p, Initial residual = 0.0149039, Final residual = 5.37795e-07, No Iterations 11
time step continuity errors : sum local = 1.88814e-06, global = -4.74111e-07, cumulative = -1.39983e-05
smoothSolver:  Solving for epsilon, Initial residual = 0.00196771, Final residual = 5.96389e-07, No Iterations 6
smoothSolver:  Solving for k, Initial residual = 0.00305337, Final residual = 4.0183e-07, No Iterations 7
ExecutionTime = 1.97 s  ClockTime = 2 s

Time = 258

smoothSolver:  Solving for Ux, Initial residual = 0.00136277, Final residual = 1.55012e-07, No Iterations 4
smoothSolver:  Solving for Uy, Initial residual = 0.00631892, Final residual = 8.68576e-07, No Iterations 4
GAMG:  Solving for p, Initial residual = 0.0172518, Final residual = 4.70711e-07, No Iterations 11
time step continuity errors : sum local = 1.65891e-06, global = -4.56301e-07, cumulative = -1.44546e-05
smoothSolver:  Solving for epsilon, Initial residual = 0.00196058, Final residual = 5.94935e-07, No Iterations 6
smoothSolver:  Solving for k, Initial residual = 0.00303867, Final residual = 4.00726e-07, No Iterations 7
ExecutionTime = 2.02 s  ClockTime = 2 s

Time = 259

smoothSolver:  Solving for Ux, Initial residual = 0.0013588, Final residual = 1.54765e-07, No Iterations 4
smoothSolver:  Solving for Uy, Initial residual = 0.0062851, Final residual = 8.65262e-07, No Iterations 4
GAMG:  Solving for p, Initial residual = 0.0170225, Final residual = 4.60431e-07, No Iterations 11
time step continuity errors : sum local = 1.62744e-06, global = -3.2715e-07, cumulative = -1.47818e-05
smoothSolver:  Solving for epsilon, Initial residual = 0.00195114, Final residual = 5.93412e-07, No Iterations 6
smoothSolver:  Solving for k, Initial residual = 0.00302509, Final residual = 3.99578e-07, No Iterations 7
ExecutionTime = 2.05 s  ClockTime = 2 s

Time = 260

smoothSolver:  Solving for Ux, Initial residual = 0.00135616, Final residual = 1.54492e-07, No Iterations 4
smoothSolver:  Solving for Uy, Initial residual = 0.00625828, Final residual = 8.61915e-07, No Iterations 4
GAMG:  Solving for p, Initial residual = 0.0148455, Final residual = 9.31907e-07, No Iterations 11
time step continuity errors : sum local = 3.29373e-06, global = -8.2387e-07, cumulative = -1.56056e-05
smoothSolver:  Solving for epsilon, Initial residual = 0.00194633, Final residual = 5.91825e-07, No Iterations 6
smoothSolver:  Solving for k, Initial residual = 0.00301273, Final residual = 3.98415e-07, No Iterations 7
ExecutionTime = 2.08 s  ClockTime = 3 s

Time = 261

smoothSolver:  Solving for Ux, Initial residual = 0.0013522, Final residual = 1.54238e-07, No Iterations 4
smoothSolver:  Solving for Uy, Initial residual = 0.00622102, Final residual = 8.58056e-07, No Iterations 4
GAMG:  Solving for p, Initial residual = 0.019299, Final residual = 8.62048e-07, No Iterations 11
time step continuity errors : sum local = 3.04772e-06, global = -8.40053e-07, cumulative = -1.64457e-05
smoothSolver:  Solving for epsilon, Initial residual = 0.00194109, Final residual = 5.90228e-07, No Iterations 6
smoothSolver:  Solving for k, Initial residual = 0.00300114, Final residual = 3.97341e-07, No Iterations 7
ExecutionTime = 2.11 s  ClockTime = 3 s

Time = 262

smoothSolver:  Solving for Ux, Initial residual = 0.00134823, Final residual = 1.53981e-07, No Iterations 4
smoothSolver:  Solving for Uy, Initial residual = 0.00618255, Final residual = 8.54073e-07, No Iterations 4
GAMG:  Solving for p, Initial residual = 0.0143044, Final residual = 5.28293e-07, No Iterations 11
time step continuity errors : sum local = 1.87292e-06, global = -4.32728e-07, cumulative = -1.68784e-05
smoothSolver:  Solving for epsilon, Initial residual = 0.00192481, Final residual = 5.8865e-07, No Iterations 6
smoothSolver:  Solving for k, Initial residual = 0.00298619, Final residual = 3.96272e-07, No Iterations 7
ExecutionTime = 2.14 s  ClockTime = 3 s

Time = 263

smoothSolver:  Solving for Ux, Initial residual = 0.00134372, Final residual = 1.53743e-07, No Iterations 4
smoothSolver:  Solving for Uy, Initial residual = 0.00614722, Final residual = 8.50624e-07, No Iterations 4
GAMG:  Solving for p, Initial residual = 0.0171478, Final residual = 4.65584e-07, No Iterations 11
time step continuity errors : sum local = 1.65588e-06, global = -5.29025e-07, cumulative = -1.74074e-05
smoothSolver:  Solving for epsilon, Initial residual = 0.00191747, Final residual = 5.86939e-07, No Iterations 6
smoothSolver:  Solving for k, Initial residual = 0.0029735, Final residual = 3.95164e-07, No Iterations 7
ExecutionTime = 2.17 s  ClockTime = 3 s

Time = 264

smoothSolver:  Solving for Ux, Initial residual = 0.00133997, Final residual = 1.53491e-07, No Iterations 4
smoothSolver:  Solving for Uy, Initial residual = 0.00611427, Final residual = 8.4729e-07, No Iterations 4
GAMG:  Solving for p, Initial residual = 0.0166342, Final residual = 4.1066e-07, No Iterations 11
time step continuity errors : sum local = 1.46514e-06, global = -3.07785e-07, cumulative = -1.77152e-05
smoothSolver:  Solving for epsilon, Initial residual = 0.00190804, Final residual = 5.85224e-07, No Iterations 6
smoothSolver:  Solving for k, Initial residual = 0.00296027, Final residual = 3.94044e-07, No Iterations 7
ExecutionTime = 2.2 s  ClockTime = 3 s

Time = 265

smoothSolver:  Solving for Ux, Initial residual = 0.00133774, Final residual = 1.53242e-07, No Iterations 4
smoothSolver:  Solving for Uy, Initial residual = 0.00608968, Final residual = 8.43815e-07, No Iterations 4
GAMG:  Solving for p, Initial residual = 0.0143542, Final residual = 8.5841e-07, No Iterations 11
time step continuity errors : sum local = 3.06202e-06, global = -8.28823e-07, cumulative = -1.8544e-05
smoothSolver:  Solving for epsilon, Initial residual = 0.00190273, Final residual = 5.83489e-07, No Iterations 6
smoothSolver:  Solving for k, Initial residual = 0.00294878, Final residual = 3.93012e-07, No Iterations 7
ExecutionTime = 2.23 s  ClockTime = 3 s

Time = 266

smoothSolver:  Solving for Ux, Initial residual = 0.00133377, Final residual = 1.53004e-07, No Iterations 4
smoothSolver:  Solving for Uy, Initial residual = 0.00605188, Final residual = 8.40101e-07, No Iterations 4
GAMG:  Solving for p, Initial residual = 0.0187003, Final residual = 7.88969e-07, No Iterations 11
time step continuity errors : sum local = 2.81681e-06, global = -7.72201e-07, cumulative = -1.93162e-05
smoothSolver:  Solving for epsilon, Initial residual = 0.00189842, Final residual = 5.81741e-07, No Iterations 6
smoothSolver:  Solving for k, Initial residual = 0.00293748, Final residual = 3.91964e-07, No Iterations 7
ExecutionTime = 2.26 s  ClockTime = 3 s

Time = 267

smoothSolver:  Solving for Ux, Initial residual = 0.00132989, Final residual = 1.52761e-07, No Iterations 4
smoothSolver:  Solving for Uy, Initial residual = 0.00601518, Final residual = 8.36097e-07, No Iterations 4
GAMG:  Solving for p, Initial residual = 0.0136868, Final residual = 5.4515e-07, No Iterations 11
time step continuity errors : sum local = 1.95146e-06, global = -4.53341e-07, cumulative = -1.97696e-05
smoothSolver:  Solving for epsilon, Initial residual = 0.00188181, Final residual = 5.79899e-07, No Iterations 6
smoothSolver:  Solving for k, Initial residual = 0.00292356, Final residual = 3.90899e-07, No Iterations 7
ExecutionTime = 2.29 s  ClockTime = 3 s

Time = 268

smoothSolver:  Solving for Ux, Initial residual = 0.00132534, Final residual = 1.52511e-07, No Iterations 4
smoothSolver:  Solving for Uy, Initial residual = 0.00598192, Final residual = 8.32609e-07, No Iterations 4
GAMG:  Solving for p, Initial residual = 0.016627, Final residual = 6.06599e-07, No Iterations 11
time step continuity errors : sum local = 2.17902e-06, global = -8.57408e-07, cumulative = -2.0627e-05
smoothSolver:  Solving for epsilon, Initial residual = 0.00187542, Final residual = 5.78116e-07, No Iterations 6
smoothSolver:  Solving for k, Initial residual = 0.00291019, Final residual = 3.89812e-07, No Iterations 7
ExecutionTime = 2.32 s  ClockTime = 3 s

Time = 269

smoothSolver:  Solving for Ux, Initial residual = 0.00132163, Final residual = 1.52245e-07, No Iterations 4
smoothSolver:  Solving for Uy, Initial residual = 0.00595118, Final residual = 8.29223e-07, No Iterations 4
GAMG:  Solving for p, Initial residual = 0.0161737, Final residual = 4.2764e-07, No Iterations 11
time step continuity errors : sum local = 1.5401e-06, global = -3.98863e-07, cumulative = -2.10259e-05
smoothSolver:  Solving for epsilon, Initial residual = 0.00186289, Final residual = 5.76276e-07, No Iterations 6
smoothSolver:  Solving for k, Initial residual = 0.00289731, Final residual = 3.88834e-07, No Iterations 7
ExecutionTime = 2.35 s  ClockTime = 3 s

Time = 270

smoothSolver:  Solving for Ux, Initial residual = 0.0013195, Final residual = 1.51975e-07, No Iterations 4
smoothSolver:  Solving for Uy, Initial residual = 0.00592657, Final residual = 8.25841e-07, No Iterations 4
GAMG:  Solving for p, Initial residual = 0.0147518, Final residual = 7.616e-07, No Iterations 11
time step continuity errors : sum local = 2.74386e-06, global = -7.76327e-07, cumulative = -2.18022e-05
smoothSolver:  Solving for epsilon, Initial residual = 0.0018625, Final residual = 5.74466e-07, No Iterations 6
smoothSolver:  Solving for k, Initial residual = 0.00288729, Final residual = 3.87834e-07, No Iterations 7
ExecutionTime = 2.38 s  ClockTime = 3 s

Time = 271

smoothSolver:  Solving for Ux, Initial residual = 0.001316, Final residual = 1.51732e-07, No Iterations 4
smoothSolver:  Solving for Uy, Initial residual = 0.00589048, Final residual = 8.22272e-07, No Iterations 4
GAMG:  Solving for p, Initial residual = 0.0189199, Final residual = 6.05564e-07, No Iterations 12
time step continuity errors : sum local = 2.18357e-06, global = 1.69044e-07, cumulative = -2.16331e-05
smoothSolver:  Solving for epsilon, Initial residual = 0.00185827, Final residual = 5.72649e-07, No Iterations 6
smoothSolver:  Solving for k, Initial residual = 0.00287608, Final residual = 3.86785e-07, No Iterations 7
ExecutionTime = 2.42 s  ClockTime = 3 s

Time = 272

smoothSolver:  Solving for Ux, Initial residual = 0.00131226, Final residual = 1.51492e-07, No Iterations 4
smoothSolver:  Solving for Uy, Initial residual = 0.00585546, Final residual = 8.18404e-07, No Iterations 4
GAMG:  Solving for p, Initial residual = 0.012778, Final residual = 5.78641e-07, No Iterations 11
time step continuity errors : sum local = 2.09072e-06, global = -5.78028e-07, cumulative = -2.22112e-05
smoothSolver:  Solving for epsilon, Initial residual = 0.00183891, Final residual = 5.70969e-07, No Iterations 6
smoothSolver:  Solving for k, Initial residual = 0.00286214, Final residual = 3.85766e-07, No Iterations 7
ExecutionTime = 2.44 s  ClockTime = 3 s

Time = 273

smoothSolver:  Solving for Ux, Initial residual = 0.00130793, Final residual = 1.51265e-07, No Iterations 4
smoothSolver:  Solving for Uy, Initial residual = 0.00582413, Final residual = 8.15068e-07, No Iterations 4
GAMG:  Solving for p, Initial residual = 0.0164077, Final residual = 8.28157e-07, No Iterations 11
time step continuity errors : sum local = 3.003e-06, global = -9.48483e-07, cumulative = -2.31597e-05
smoothSolver:  Solving for epsilon, Initial residual = 0.00183701, Final residual = 5.6934e-07, No Iterations 6
smoothSolver:  Solving for k, Initial residual = 0.00285061, Final residual = 3.84813e-07, No Iterations 7
ExecutionTime = 2.47 s  ClockTime = 3 s

Time = 274

smoothSolver:  Solving for Ux, Initial residual = 0.0013045, Final residual = 1.51022e-07, No Iterations 4
smoothSolver:  Solving for Uy, Initial residual = 0.00579519, Final residual = 8.11857e-07, No Iterations 4
GAMG:  Solving for p, Initial residual = 0.0163479, Final residual = 5.19216e-07, No Iterations 11
time step continuity errors : sum local = 1.88875e-06, global = -6.16788e-07, cumulative = -2.37764e-05
smoothSolver:  Solving for epsilon, Initial residual = 0.00182733, Final residual = 5.67748e-07, No Iterations 6
smoothSolver:  Solving for k, Initial residual = 0.00283803, Final residual = 3.83848e-07, No Iterations 7
ExecutionTime = 2.5 s  ClockTime = 3 s

Time = 275

smoothSolver:  Solving for Ux, Initial residual = 0.00130239, Final residual = 1.50769e-07, No Iterations 4
smoothSolver:  Solving for Uy, Initial residual = 0.00577346, Final residual = 8.08578e-07, No Iterations 4
GAMG:  Solving for p, Initial residual = 0.0128588, Final residual = 6.71861e-07, No Iterations 11
time step continuity errors : sum local = 2.44253e-06, global = -6.54305e-07, cumulative = -2.44307e-05
smoothSolver:  Solving for epsilon, Initial residual = 0.00181872, Final residual = 5.66153e-07, No Iterations 6
smoothSolver:  Solving for k, Initial residual = 0.00282754, Final residual = 3.82845e-07, No Iterations 7
ExecutionTime = 2.53 s  ClockTime = 3 s

Time = 276

smoothSolver:  Solving for Ux, Initial residual = 0.00129858, Final residual = 1.50527e-07, No Iterations 4
smoothSolver:  Solving for Uy, Initial residual = 0.00574023, Final residual = 8.05106e-07, No Iterations 4
GAMG:  Solving for p, Initial residual = 0.0179423, Final residual = 4.30291e-07, No Iterations 12
time step continuity errors : sum local = 1.56572e-06, global = -2.6594e-07, cumulative = -2.46967e-05
smoothSolver:  Solving for epsilon, Initial residual = 0.00181879, Final residual = 5.6462e-07, No Iterations 6
smoothSolver:  Solving for k, Initial residual = 0.00281771, Final residual = 3.81862e-07, No Iterations 7
ExecutionTime = 2.56 s  ClockTime = 3 s

Time = 277

smoothSolver:  Solving for Ux, Initial residual = 0.00129508, Final residual = 1.50275e-07, No Iterations 4
smoothSolver:  Solving for Uy, Initial residual = 0.00570788, Final residual = 8.01489e-07, No Iterations 4
GAMG:  Solving for p, Initial residual = 0.0137897, Final residual = 8.00337e-07, No Iterations 11
time step continuity errors : sum local = 2.9196e-06, global = -9.51438e-07, cumulative = -2.56481e-05
smoothSolver:  Solving for epsilon, Initial residual = 0.00180304, Final residual = 5.6317e-07, No Iterations 6
smoothSolver:  Solving for k, Initial residual = 0.00280389, Final residual = 3.8098e-07, No Iterations 7
ExecutionTime = 2.6 s  ClockTime = 3 s

Time = 278

smoothSolver:  Solving for Ux, Initial residual = 0.00129092, Final residual = 1.50026e-07, No Iterations 4
smoothSolver:  Solving for Uy, Initial residual = 0.00567678, Final residual = 7.98312e-07, No Iterations 4
GAMG:  Solving for p, Initial residual = 0.0152628, Final residual = 4.47897e-07, No Iterations 12
time step continuity errors : sum local = 1.63826e-06, global = 4.86346e-07, cumulative = -2.51618e-05
smoothSolver:  Solving for epsilon, Initial residual = 0.00179453, Final residual = 5.61667e-07, No Iterations 6
smoothSolver:  Solving for k, Initial residual = 0.00279258, Final residual = 3.80032e-07, No Iterations 7
ExecutionTime = 2.63 s  ClockTime = 3 s

Time = 279

smoothSolver:  Solving for Ux, Initial residual = 0.0012876, Final residual = 1.49777e-07, No Iterations 4
smoothSolver:  Solving for Uy, Initial residual = 0.00564924, Final residual = 7.95238e-07, No Iterations 4
GAMG:  Solving for p, Initial residual = 0.0155496, Final residual = 7.09059e-07, No Iterations 11
time step continuity errors : sum local = 2.6017e-06, global = -4.7498e-07, cumulative = -2.56368e-05
smoothSolver:  Solving for epsilon, Initial residual = 0.00178905, Final residual = 5.60251e-07, No Iterations 6
smoothSolver:  Solving for k, Initial residual = 0.0027812, Final residual = 3.79047e-07, No Iterations 7
ExecutionTime = 2.66 s  ClockTime = 3 s

Time = 280

smoothSolver:  Solving for Ux, Initial residual = 0.00128604, Final residual = 1.49535e-07, No Iterations 4
smoothSolver:  Solving for Uy, Initial residual = 0.00563003, Final residual = 7.92046e-07, No Iterations 4
GAMG:  Solving for p, Initial residual = 0.0140415, Final residual = 5.83087e-07, No Iterations 11
time step continuity errors : sum local = 2.13998e-06, global = -3.96699e-07, cumulative = -2.60335e-05
smoothSolver:  Solving for epsilon, Initial residual = 0.00178382, Final residual = 5.58808e-07, No Iterations 6
smoothSolver:  Solving for k, Initial residual = 0.00277054, Final residual = 3.78104e-07, No Iterations 7
ExecutionTime = 2.69 s  ClockTime = 3 s

Time = 281

smoothSolver:  Solving for Ux, Initial residual = 0.00128247, Final residual = 1.4931e-07, No Iterations 4
smoothSolver:  Solving for Uy, Initial residual = 0.00559827, Final residual = 7.88655e-07, No Iterations 4
GAMG:  Solving for p, Initial residual = 0.0167676, Final residual = 4.64991e-07, No Iterations 12
time step continuity errors : sum local = 1.70662e-06, global = -3.04443e-07, cumulative = -2.63379e-05
smoothSolver:  Solving for epsilon, Initial residual = 0.00177725, Final residual = 5.57317e-07, No Iterations 6
smoothSolver:  Solving for k, Initial residual = 0.00276103, Final residual = 3.77223e-07, No Iterations 7
ExecutionTime = 2.73 s  ClockTime = 3 s

Time = 282

smoothSolver:  Solving for Ux, Initial residual = 0.00127892, Final residual = 1.49077e-07, No Iterations 4
smoothSolver:  Solving for Uy, Initial residual = 0.00556747, Final residual = 7.85238e-07, No Iterations 4
GAMG:  Solving for p, Initial residual = 0.0127395, Final residual = 8.99042e-07, No Iterations 11
time step continuity errors : sum local = 3.30921e-06, global = -4.01059e-07, cumulative = -2.6739e-05
smoothSolver:  Solving for epsilon, Initial residual = 0.00176151, Final residual = 5.55879e-07, No Iterations 6
smoothSolver:  Solving for k, Initial residual = 0.00274863, Final residual = 3.76351e-07, No Iterations 7
ExecutionTime = 2.75 s  ClockTime = 3 s

Time = 283

smoothSolver:  Solving for Ux, Initial residual = 0.00127478, Final residual = 1.48851e-07, No Iterations 4
smoothSolver:  Solving for Uy, Initial residual = 0.00553948, Final residual = 7.82313e-07, No Iterations 4
GAMG:  Solving for p, Initial residual = 0.0153487, Final residual = 8.69875e-07, No Iterations 11
time step continuity errors : sum local = 3.21447e-06, global = -5.27985e-07, cumulative = -2.72669e-05
smoothSolver:  Solving for epsilon, Initial residual = 0.00176136, Final residual = 5.54457e-07, No Iterations 6
smoothSolver:  Solving for k, Initial residual = 0.00273788, Final residual = 3.75407e-07, No Iterations 7
ExecutionTime = 2.79 s  ClockTime = 3 s

Time = 284

smoothSolver:  Solving for Ux, Initial residual = 0.00127184, Final residual = 1.48608e-07, No Iterations 4
smoothSolver:  Solving for Uy, Initial residual = 0.00551498, Final residual = 7.79407e-07, No Iterations 4
GAMG:  Solving for p, Initial residual = 0.0159557, Final residual = 6.70861e-07, No Iterations 11
time step continuity errors : sum local = 2.48724e-06, global = -2.83204e-07, cumulative = -2.75501e-05
smoothSolver:  Solving for epsilon, Initial residual = 0.00175232, Final residual = 5.53048e-07, No Iterations 6
smoothSolver:  Solving for k, Initial residual = 0.00272543, Final residual = 3.7451e-07, No Iterations 7
ExecutionTime = 2.82 s  ClockTime = 3 s

Time = 285

smoothSolver:  Solving for Ux, Initial residual = 0.0012701, Final residual = 1.48363e-07, No Iterations 4
smoothSolver:  Solving for Uy, Initial residual = 0.00549616, Final residual = 7.76455e-07, No Iterations 4
GAMG:  Solving for p, Initial residual = 0.0122296, Final residual = 5.595e-07, No Iterations 11
time step continuity errors : sum local = 2.07224e-06, global = -4.32953e-08, cumulative = -2.75934e-05
smoothSolver:  Solving for epsilon, Initial residual = 0.00174431, Final residual = 5.51571e-07, No Iterations 6
smoothSolver:  Solving for k, Initial residual = 0.00271573, Final residual = 3.73636e-07, No Iterations 7
ExecutionTime = 2.85 s  ClockTime = 3 s

Time = 286

smoothSolver:  Solving for Ux, Initial residual = 0.00126676, Final residual = 1.48129e-07, No Iterations 4
smoothSolver:  Solving for Uy, Initial residual = 0.00546625, Final residual = 7.73294e-07, No Iterations 4
GAMG:  Solving for p, Initial residual = 0.0171063, Final residual = 4.77849e-07, No Iterations 12
time step continuity errors : sum local = 1.77119e-06, global = -3.73996e-07, cumulative = -2.79674e-05
smoothSolver:  Solving for epsilon, Initial residual = 0.00174056, Final residual = 5.50154e-07, No Iterations 6
smoothSolver:  Solving for k, Initial residual = 0.00270633, Final residual = 3.72734e-07, No Iterations 7
ExecutionTime = 2.88 s  ClockTime = 3 s

Time = 287

smoothSolver:  Solving for Ux, Initial residual = 0.00126347, Final residual = 1.4789e-07, No Iterations 4
smoothSolver:  Solving for Uy, Initial residual = 0.00543731, Final residual = 7.6996e-07, No Iterations 4
GAMG:  Solving for p, Initial residual = 0.0123248, Final residual = 3.82146e-07, No Iterations 12
time step continuity errors : sum local = 1.42059e-06, global = 3.62191e-07, cumulative = -2.76052e-05
smoothSolver:  Solving for epsilon, Initial residual = 0.0017259, Final residual = 5.48733e-07, No Iterations 6
smoothSolver:  Solving for k, Initial residual = 0.00269439, Final residual = 3.71859e-07, No Iterations 7
ExecutionTime = 2.91 s  ClockTime = 3 s

Time = 288

smoothSolver:  Solving for Ux, Initial residual = 0.00125967, Final residual = 1.47672e-07, No Iterations 4
smoothSolver:  Solving for Uy, Initial residual = 0.0054105, Final residual = 7.67022e-07, No Iterations 4
GAMG:  Solving for p, Initial residual = 0.0146527, Final residual = 5.48201e-07, No Iterations 11
time step continuity errors : sum local = 2.04517e-06, global = 4.94408e-07, cumulative = -2.71108e-05
smoothSolver:  Solving for epsilon, Initial residual = 0.00172646, Final residual = 5.47296e-07, No Iterations 6
smoothSolver:  Solving for k, Initial residual = 0.0026846, Final residual = 3.71031e-07, No Iterations 7
ExecutionTime = 2.94 s  ClockTime = 3 s

Time = 289

smoothSolver:  Solving for Ux, Initial residual = 0.00125704, Final residual = 1.47448e-07, No Iterations 4
smoothSolver:  Solving for Uy, Initial residual = 0.00538731, Final residual = 7.64307e-07, No Iterations 4
GAMG:  Solving for p, Initial residual = 0.0160015, Final residual = 6.47331e-07, No Iterations 11
time step continuity errors : sum local = 2.422e-06, global = -3.4089e-07, cumulative = -2.74517e-05
smoothSolver:  Solving for epsilon, Initial residual = 0.00171833, Final residual = 5.45904e-07, No Iterations 6
smoothSolver:  Solving for k, Initial residual = 0.00267335, Final residual = 3.70208e-07, No Iterations 7
ExecutionTime = 2.97 s  ClockTime = 3 s

Time = 290

smoothSolver:  Solving for Ux, Initial residual = 0.00125556, Final residual = 1.47227e-07, No Iterations 4
smoothSolver:  Solving for Uy, Initial residual = 0.00537023, Final residual = 7.61587e-07, No Iterations 4
GAMG:  Solving for p, Initial residual = 0.0120244, Final residual = 5.55295e-07, No Iterations 11
time step continuity errors : sum local = 2.07553e-06, global = 1.83428e-07, cumulative = -2.72683e-05
smoothSolver:  Solving for epsilon, Initial residual = 0.00171051, Final residual = 5.44498e-07, No Iterations 6
smoothSolver:  Solving for k, Initial residual = 0.002664, Final residual = 3.69324e-07, No Iterations 7
ExecutionTime = 3 s  ClockTime = 3 s

Time = 291

smoothSolver:  Solving for Ux, Initial residual = 0.00125229, Final residual = 1.47016e-07, No Iterations 4
smoothSolver:  Solving for Uy, Initial residual = 0.00534264, Final residual = 7.58694e-07, No Iterations 4
GAMG:  Solving for p, Initial residual = 0.016335, Final residual = 5.00347e-07, No Iterations 12
time step continuity errors : sum local = 1.87188e-06, global = -4.39573e-07, cumulative = -2.77079e-05
smoothSolver:  Solving for epsilon, Initial residual = 0.00170703, Final residual = 5.43079e-07, No Iterations 6
smoothSolver:  Solving for k, Initial residual = 0.00265452, Final residual = 3.68423e-07, No Iterations 7
ExecutionTime = 3.03 s  ClockTime = 3 s

Time = 292

smoothSolver:  Solving for Ux, Initial residual = 0.0012491, Final residual = 1.46787e-07, No Iterations 4
smoothSolver:  Solving for Uy, Initial residual = 0.00531559, Final residual = 7.5556e-07, No Iterations 4
GAMG:  Solving for p, Initial residual = 0.0116467, Final residual = 4.47163e-07, No Iterations 11
time step continuity errors : sum local = 1.67782e-06, global = 1.74649e-07, cumulative = -2.75332e-05
smoothSolver:  Solving for epsilon, Initial residual = 0.00169278, Final residual = 5.4173e-07, No Iterations 6
smoothSolver:  Solving for k, Initial residual = 0.00264286, Final residual = 3.67612e-07, No Iterations 7
ExecutionTime = 3.06 s  ClockTime = 4 s

Time = 293

smoothSolver:  Solving for Ux, Initial residual = 0.00124548, Final residual = 1.46574e-07, No Iterations 4
smoothSolver:  Solving for Uy, Initial residual = 0.0052905, Final residual = 7.52849e-07, No Iterations 4
GAMG:  Solving for p, Initial residual = 0.0140851, Final residual = 4.15529e-07, No Iterations 12
time step continuity errors : sum local = 1.56462e-06, global = 2.66253e-07, cumulative = -2.7267e-05
smoothSolver:  Solving for epsilon, Initial residual = 0.00168932, Final residual = 5.40365e-07, No Iterations 6
smoothSolver:  Solving for k, Initial residual = 0.00263314, Final residual = 3.66814e-07, No Iterations 7
ExecutionTime = 3.1 s  ClockTime = 4 s

Time = 294

smoothSolver:  Solving for Ux, Initial residual = 0.00124274, Final residual = 1.46358e-07, No Iterations 4
smoothSolver:  Solving for Uy, Initial residual = 0.00526838, Final residual = 7.50199e-07, No Iterations 4
GAMG:  Solving for p, Initial residual = 0.0133941, Final residual = 4.8775e-07, No Iterations 11
time step continuity errors : sum local = 1.84164e-06, global = 2.3674e-07, cumulative = -2.70302e-05
smoothSolver:  Solving for epsilon, Initial residual = 0.00168207, Final residual = 5.38958e-07, No Iterations 6
smoothSolver:  Solving for k, Initial residual = 0.00262297, Final residual = 3.65979e-07, No Iterations 7
ExecutionTime = 3.13 s  ClockTime = 4 s

Time = 295

smoothSolver:  Solving for Ux, Initial residual = 0.00124168, Final residual = 1.46149e-07, No Iterations 4
smoothSolver:  Solving for Uy, Initial residual = 0.00525302, Final residual = 7.47555e-07, No Iterations 4
GAMG:  Solving for p, Initial residual = 0.0114001, Final residual = 4.29122e-07, No Iterations 11
time step continuity errors : sum local = 1.62021e-06, global = 3.62693e-07, cumulative = -2.66675e-05
smoothSolver:  Solving for epsilon, Initial residual = 0.00167742, Final residual = 5.37524e-07, No Iterations 6
smoothSolver:  Solving for k, Initial residual = 0.002614, Final residual = 3.65117e-07, No Iterations 7
ExecutionTime = 3.16 s  ClockTime = 4 s

Time = 296

smoothSolver:  Solving for Ux, Initial residual = 0.00123879, Final residual = 1.4595e-07, No Iterations 4
smoothSolver:  Solving for Uy, Initial residual = 0.00522605, Final residual = 7.44712e-07, No Iterations 4
GAMG:  Solving for p, Initial residual = 0.0153325, Final residual = 8.67335e-07, No Iterations 11
time step continuity errors : sum local = 3.27685e-06, global = 8.2571e-07, cumulative = -2.58418e-05
smoothSolver:  Solving for epsilon, Initial residual = 0.0016748, Final residual = 5.3617e-07, No Iterations 6
smoothSolver:  Solving for k, Initial residual = 0.00260514, Final residual = 3.64301e-07, No Iterations 7
ExecutionTime = 3.19 s  ClockTime = 4 s

Time = 297

smoothSolver:  Solving for Ux, Initial residual = 0.00123599, Final residual = 1.45733e-07, No Iterations 4
smoothSolver:  Solving for Uy, Initial residual = 0.00520041, Final residual = 7.41771e-07, No Iterations 4
GAMG:  Solving for p, Initial residual = 0.0106269, Final residual = 5.12827e-07, No Iterations 12
time step continuity errors : sum local = 1.94204e-06, global = 2.70327e-07, cumulative = -2.55715e-05
smoothSolver:  Solving for epsilon, Initial residual = 0.00166122, Final residual = 5.34821e-07, No Iterations 6
smoothSolver:  Solving for k, Initial residual = 0.00259407, Final residual = 3.63481e-07, No Iterations 7
ExecutionTime = 3.22 s  ClockTime = 4 s

Time = 298

smoothSolver:  Solving for Ux, Initial residual = 0.00123255, Final residual = 1.45532e-07, No Iterations 4
smoothSolver:  Solving for Uy, Initial residual = 0.00517718, Final residual = 7.3925e-07, No Iterations 4
GAMG:  Solving for p, Initial residual = 0.0132144, Final residual = 5.56138e-07, No Iterations 12
time step continuity errors : sum local = 2.11258e-06, global = 3.027e-07, cumulative = -2.52688e-05
smoothSolver:  Solving for epsilon, Initial residual = 0.00165833, Final residual = 5.33434e-07, No Iterations 6
smoothSolver:  Solving for k, Initial residual = 0.00258468, Final residual = 3.62602e-07, No Iterations 7
ExecutionTime = 3.25 s  ClockTime = 4 s

Time = 299

smoothSolver:  Solving for Ux, Initial residual = 0.00122993, Final residual = 1.45335e-07, No Iterations 4
smoothSolver:  Solving for Uy, Initial residual = 0.005156, Final residual = 7.36716e-07, No Iterations 4
GAMG:  Solving for p, Initial residual = 0.0126556, Final residual = 4.31509e-07, No Iterations 12
time step continuity errors : sum local = 1.64374e-06, global = 2.13248e-07, cumulative = -2.50556e-05
smoothSolver:  Solving for epsilon, Initial residual = 0.00165129, Final residual = 5.3209e-07, No Iterations 6
smoothSolver:  Solving for k, Initial residual = 0.00257479, Final residual = 3.6176e-07, No Iterations 7
ExecutionTime = 3.29 s  ClockTime = 4 s

Time = 300

smoothSolver:  Solving for Ux, Initial residual = 0.00122911, Final residual = 1.45144e-07, No Iterations 4
smoothSolver:  Solving for Uy, Initial residual = 0.00514181, Final residual = 7.3417e-07, No Iterations 4
GAMG:  Solving for p, Initial residual = 0.0107685, Final residual = 3.83105e-07, No Iterations 11
time step continuity errors : sum local = 1.45954e-06, global = 4.79275e-07, cumulative = -2.45763e-05
smoothSolver:  Solving for epsilon, Initial residual = 0.00164663, Final residual = 5.30712e-07, No Iterations 6
smoothSolver:  Solving for k, Initial residual = 0.00256623, Final residual = 3.60936e-07, No Iterations 7
ExecutionTime = 3.35 s  ClockTime = 4 s

streamLine streamlines write:
    seeded 10 particles
    Tracks:10
    Total samples:9670
    Writing data to "/media/suraj/My4TBHD1/git_workspace/ANL/RLLib_Theta/openfoam/multiple_velocity_dynamic_relaxation/postProcessing/sets/streamlines/300"
End

