/*---------------------------------------------------------------------------*\
| =========                 |                                                 |
| \\      /  F ield         | OpenFOAM: The Open Source CFD Toolbox           |
|  \\    /   O peration     | Version:  5.x                                   |
|   \\  /    A nd           | Web:      www.OpenFOAM.org                      |
|    \\/     M anipulation  |                                                 |
\*---------------------------------------------------------------------------*/
Build  : 5.x-7f7d351b741b
Exec   : simpleFoam
Date   : Jun 21 2020
Time   : 16:08:52
Host   : "suraj-MS-7B06"
PID    : 10050
I/O    : uncollated
Case   : /media/suraj/My4TBHD1/git_workspace/ANL/RLLib_Theta/openfoam/multiple_velocity_dynamic_relaxation
nProcs : 1
sigFpe : Enabling floating point exception trapping (FOAM_SIGFPE).
fileModificationChecking : Monitoring run-time modified files using timeStampMaster (fileModificationSkew 10)
allowSystemOperations : Allowing user-supplied system call operations

// * * * * * * * * * * * * * * * * * * * * * * * * * * * * * * * * * * * * * //
Create time

Create mesh for time = 600


SIMPLE: convergence criteria
    field p	 tolerance 0.01
    field U	 tolerance 0.001
    field "(k|epsilon|omega|f|v2)"	 tolerance 0.001

Reading field p

Reading field U

Reading/calculating face flux field phi

Selecting incompressible transport model Newtonian
Selecting turbulence model type RAS
Selecting RAS turbulence model kEpsilon
RAS
{
    RASModel        kEpsilon;
    turbulence      on;
    printCoeffs     on;
    Cmu             0.09;
    C1              1.44;
    C2              1.92;
    C3              0;
    sigmak          1;
    sigmaEps        1.3;
}

No MRF models present

No finite volume options present


Starting time loop

streamLine streamlines:
    automatic track length specified through number of sub cycles : 5

Time = 601

smoothSolver:  Solving for Ux, Initial residual = 0.000691121, Final residual = 7.97797e-07, No Iterations 3
smoothSolver:  Solving for Uy, Initial residual = 0.0045915, Final residual = 6.55228e-07, No Iterations 4
GAMG:  Solving for p, Initial residual = 0.00288619, Final residual = 9.11524e-07, No Iterations 10
time step continuity errors : sum local = 4.84704e-06, global = 4.92738e-07, cumulative = 4.92738e-07
smoothSolver:  Solving for epsilon, Initial residual = 0.00137182, Final residual = 6.72321e-07, No Iterations 6
smoothSolver:  Solving for k, Initial residual = 0.00258398, Final residual = 5.01076e-07, No Iterations 7
ExecutionTime = 0.25 s  ClockTime = 0 s

Time = 602

smoothSolver:  Solving for Ux, Initial residual = 0.000691274, Final residual = 7.9789e-07, No Iterations 3
smoothSolver:  Solving for Uy, Initial residual = 0.00459959, Final residual = 6.56574e-07, No Iterations 4
GAMG:  Solving for p, Initial residual = 0.00345311, Final residual = 4.78904e-07, No Iterations 12
time step continuity errors : sum local = 2.54766e-06, global = 3.26956e-07, cumulative = 8.19694e-07
smoothSolver:  Solving for epsilon, Initial residual = 0.00137196, Final residual = 6.71653e-07, No Iterations 6
smoothSolver:  Solving for k, Initial residual = 0.00258159, Final residual = 5.0068e-07, No Iterations 7
ExecutionTime = 0.28 s  ClockTime = 0 s

Time = 603

smoothSolver:  Solving for Ux, Initial residual = 0.000691743, Final residual = 7.96792e-07, No Iterations 3
smoothSolver:  Solving for Uy, Initial residual = 0.00461283, Final residual = 6.57904e-07, No Iterations 4
GAMG:  Solving for p, Initial residual = 0.00387686, Final residual = 6.14061e-07, No Iterations 12
time step continuity errors : sum local = 3.27132e-06, global = 4.83936e-07, cumulative = 1.30363e-06
smoothSolver:  Solving for epsilon, Initial residual = 0.0013724, Final residual = 6.71331e-07, No Iterations 6
smoothSolver:  Solving for k, Initial residual = 0.00257927, Final residual = 5.0008e-07, No Iterations 7
ExecutionTime = 0.31 s  ClockTime = 0 s

Time = 604

smoothSolver:  Solving for Ux, Initial residual = 0.000692371, Final residual = 7.95462e-07, No Iterations 3
smoothSolver:  Solving for Uy, Initial residual = 0.00462749, Final residual = 6.59166e-07, No Iterations 4
GAMG:  Solving for p, Initial residual = 0.00400553, Final residual = 5.59119e-07, No Iterations 12
time step continuity errors : sum local = 2.98169e-06, global = 3.9434e-07, cumulative = 1.69797e-06
smoothSolver:  Solving for epsilon, Initial residual = 0.001373, Final residual = 6.70926e-07, No Iterations 6
smoothSolver:  Solving for k, Initial residual = 0.00257654, Final residual = 4.99587e-07, No Iterations 7
ExecutionTime = 0.34 s  ClockTime = 0 s

Time = 605

smoothSolver:  Solving for Ux, Initial residual = 0.000693184, Final residual = 7.94482e-07, No Iterations 3
smoothSolver:  Solving for Uy, Initial residual = 0.00464098, Final residual = 6.60366e-07, No Iterations 4
GAMG:  Solving for p, Initial residual = 0.00398103, Final residual = 4.62564e-07, No Iterations 12
time step continuity errors : sum local = 2.46809e-06, global = 2.95084e-07, cumulative = 1.99305e-06
smoothSolver:  Solving for epsilon, Initial residual = 0.0013738, Final residual = 6.70309e-07, No Iterations 6
smoothSolver:  Solving for k, Initial residual = 0.00257442, Final residual = 4.99245e-07, No Iterations 7
ExecutionTime = 0.37 s  ClockTime = 0 s

Time = 606

smoothSolver:  Solving for Ux, Initial residual = 0.000693433, Final residual = 7.93521e-07, No Iterations 3
smoothSolver:  Solving for Uy, Initial residual = 0.0046498, Final residual = 6.61576e-07, No Iterations 4
GAMG:  Solving for p, Initial residual = 0.00346994, Final residual = 4.16974e-07, No Iterations 12
time step continuity errors : sum local = 2.22834e-06, global = 2.81449e-07, cumulative = 2.2745e-06
smoothSolver:  Solving for epsilon, Initial residual = 0.00137471, Final residual = 6.69868e-07, No Iterations 6
smoothSolver:  Solving for k, Initial residual = 0.00257338, Final residual = 4.98738e-07, No Iterations 7
ExecutionTime = 0.41 s  ClockTime = 0 s

Time = 607

smoothSolver:  Solving for Ux, Initial residual = 0.000693736, Final residual = 7.92789e-07, No Iterations 3
smoothSolver:  Solving for Uy, Initial residual = 0.00465922, Final residual = 6.62638e-07, No Iterations 4
GAMG:  Solving for p, Initial residual = 0.00365261, Final residual = 4.54731e-07, No Iterations 12
time step continuity errors : sum local = 2.43233e-06, global = 2.50683e-07, cumulative = 2.52519e-06
smoothSolver:  Solving for epsilon, Initial residual = 0.00137572, Final residual = 6.69575e-07, No Iterations 6
smoothSolver:  Solving for k, Initial residual = 0.00257095, Final residual = 4.97999e-07, No Iterations 7
ExecutionTime = 0.44 s  ClockTime = 0 s

Time = 608

smoothSolver:  Solving for Ux, Initial residual = 0.000694073, Final residual = 7.92088e-07, No Iterations 3
smoothSolver:  Solving for Uy, Initial residual = 0.00466936, Final residual = 6.63529e-07, No Iterations 4
GAMG:  Solving for p, Initial residual = 0.00355862, Final residual = 5.65897e-07, No Iterations 12
time step continuity errors : sum local = 3.02813e-06, global = 7.81026e-07, cumulative = 3.30621e-06
smoothSolver:  Solving for epsilon, Initial residual = 0.00137703, Final residual = 6.68954e-07, No Iterations 6
smoothSolver:  Solving for k, Initial residual = 0.00256831, Final residual = 4.97539e-07, No Iterations 7
ExecutionTime = 0.47 s  ClockTime = 0 s

Time = 609

smoothSolver:  Solving for Ux, Initial residual = 0.000694275, Final residual = 7.9119e-07, No Iterations 3
smoothSolver:  Solving for Uy, Initial residual = 0.00467847, Final residual = 6.64297e-07, No Iterations 4
GAMG:  Solving for p, Initial residual = 0.00350249, Final residual = 5.20533e-07, No Iterations 12
time step continuity errors : sum local = 2.79006e-06, global = 6.35594e-07, cumulative = 3.94181e-06
smoothSolver:  Solving for epsilon, Initial residual = 0.00137864, Final residual = 6.68358e-07, No Iterations 6
smoothSolver:  Solving for k, Initial residual = 0.0025681, Final residual = 4.97064e-07, No Iterations 7
ExecutionTime = 0.5 s  ClockTime = 0 s

Time = 610

smoothSolver:  Solving for Ux, Initial residual = 0.000694391, Final residual = 7.898e-07, No Iterations 3
smoothSolver:  Solving for Uy, Initial residual = 0.00468774, Final residual = 6.65239e-07, No Iterations 4
GAMG:  Solving for p, Initial residual = 0.00360823, Final residual = 5.00195e-07, No Iterations 12
time step continuity errors : sum local = 2.68387e-06, global = 5.88857e-07, cumulative = 4.53066e-06
smoothSolver:  Solving for epsilon, Initial residual = 0.00138043, Final residual = 6.67955e-07, No Iterations 6
