/*---------------------------------------------------------------------------*\
| =========                 |                                                 |
| \\      /  F ield         | OpenFOAM: The Open Source CFD Toolbox           |
|  \\    /   O peration     | Version:  5.x                                   |
|   \\  /    A nd           | Web:      www.OpenFOAM.org                      |
|    \\/     M anipulation  |                                                 |
\*---------------------------------------------------------------------------*/
Build  : 5.x-7f7d351b741b
Exec   : simpleFoam
Date   : Jun 21 2020
Time   : 16:08:29
Host   : "suraj-MS-7B06"
PID    : 9983
I/O    : uncollated
Case   : /media/suraj/My4TBHD1/git_workspace/ANL/RLLib_Theta/openfoam/multiple_velocity_dynamic_relaxation
nProcs : 1
sigFpe : Enabling floating point exception trapping (FOAM_SIGFPE).
fileModificationChecking : Monitoring run-time modified files using timeStampMaster (fileModificationSkew 10)
allowSystemOperations : Allowing user-supplied system call operations

// * * * * * * * * * * * * * * * * * * * * * * * * * * * * * * * * * * * * * //
Create time

Create mesh for time = 100


SIMPLE: convergence criteria
    field p	 tolerance 0.01
    field U	 tolerance 0.001
    field "(k|epsilon|omega|f|v2)"	 tolerance 0.001

Reading field p

Reading field U

Reading/calculating face flux field phi

Selecting incompressible transport model Newtonian
Selecting turbulence model type RAS
Selecting RAS turbulence model kEpsilon
RAS
{
    RASModel        kEpsilon;
    turbulence      on;
    printCoeffs     on;
    Cmu             0.09;
    C1              1.44;
    C2              1.92;
    C3              0;
    sigmak          1;
    sigmaEps        1.3;
}

No MRF models present

No finite volume options present


Starting time loop

streamLine streamlines:
    automatic track length specified through number of sub cycles : 5

Time = 101

smoothSolver:  Solving for Ux, Initial residual = 0.00297858, Final residual = 2.68459e-07, No Iterations 4
smoothSolver:  Solving for Uy, Initial residual = 0.00663775, Final residual = 5.53801e-07, No Iterations 4
GAMG:  Solving for p, Initial residual = 0.0401831, Final residual = 3.17733e-07, No Iterations 14
time step continuity errors : sum local = 6.14151e-07, global = 7.74648e-08, cumulative = 7.74648e-08
smoothSolver:  Solving for epsilon, Initial residual = 0.00365568, Final residual = 3.01173e-07, No Iterations 7
smoothSolver:  Solving for k, Initial residual = 0.00669815, Final residual = 8.18064e-07, No Iterations 7
ExecutionTime = 0.25 s  ClockTime = 0 s

Time = 102

smoothSolver:  Solving for Ux, Initial residual = 0.00296107, Final residual = 2.67078e-07, No Iterations 4
smoothSolver:  Solving for Uy, Initial residual = 0.00660211, Final residual = 5.51213e-07, No Iterations 4
GAMG:  Solving for p, Initial residual = 0.0361268, Final residual = 3.00178e-07, No Iterations 14
time step continuity errors : sum local = 5.8335e-07, global = 7.47786e-08, cumulative = 1.52243e-07
smoothSolver:  Solving for epsilon, Initial residual = 0.00361585, Final residual = 2.99359e-07, No Iterations 7
smoothSolver:  Solving for k, Initial residual = 0.00666765, Final residual = 8.20189e-07, No Iterations 7
ExecutionTime = 0.29 s  ClockTime = 0 s

Time = 103

smoothSolver:  Solving for Ux, Initial residual = 0.00294296, Final residual = 2.65675e-07, No Iterations 4
smoothSolver:  Solving for Uy, Initial residual = 0.00656829, Final residual = 5.49209e-07, No Iterations 4
GAMG:  Solving for p, Initial residual = 0.0375307, Final residual = 3.02413e-07, No Iterations 14
time step continuity errors : sum local = 5.93293e-07, global = 7.54433e-08, cumulative = 2.27687e-07
smoothSolver:  Solving for epsilon, Initial residual = 0.00358926, Final residual = 2.9747e-07, No Iterations 7
smoothSolver:  Solving for k, Initial residual = 0.00663669, Final residual = 8.22201e-07, No Iterations 7
ExecutionTime = 0.32 s  ClockTime = 0 s

Time = 104

smoothSolver:  Solving for Ux, Initial residual = 0.00292497, Final residual = 2.64256e-07, No Iterations 4
smoothSolver:  Solving for Uy, Initial residual = 0.00654197, Final residual = 5.47578e-07, No Iterations 4
GAMG:  Solving for p, Initial residual = 0.0366128, Final residual = 3.04167e-07, No Iterations 14
time step continuity errors : sum local = 5.98565e-07, global = 7.51406e-08, cumulative = 3.02827e-07
smoothSolver:  Solving for epsilon, Initial residual = 0.00355076, Final residual = 2.95504e-07, No Iterations 7
smoothSolver:  Solving for k, Initial residual = 0.00660898, Final residual = 8.2393e-07, No Iterations 7
ExecutionTime = 0.35 s  ClockTime = 0 s

Time = 105

smoothSolver:  Solving for Ux, Initial residual = 0.00290675, Final residual = 2.62842e-07, No Iterations 4
smoothSolver:  Solving for Uy, Initial residual = 0.00651224, Final residual = 5.45812e-07, No Iterations 4
GAMG:  Solving for p, Initial residual = 0.0345214, Final residual = 2.85433e-07, No Iterations 14
time step continuity errors : sum local = 5.64158e-07, global = 7.2204e-08, cumulative = 3.75031e-07
smoothSolver:  Solving for epsilon, Initial residual = 0.00352269, Final residual = 2.93597e-07, No Iterations 7
smoothSolver:  Solving for k, Initial residual = 0.00658063, Final residual = 8.25669e-07, No Iterations 7
ExecutionTime = 0.39 s  ClockTime = 0 s

Time = 106

smoothSolver:  Solving for Ux, Initial residual = 0.00289046, Final residual = 2.61414e-07, No Iterations 4
smoothSolver:  Solving for Uy, Initial residual = 0.00648757, Final residual = 5.44255e-07, No Iterations 4
GAMG:  Solving for p, Initial residual = 0.0456353, Final residual = 3.0135e-07, No Iterations 14
time step continuity errors : sum local = 5.99941e-07, global = 8.508e-08, cumulative = 4.60111e-07
smoothSolver:  Solving for epsilon, Initial residual = 0.00351293, Final residual = 2.91699e-07, No Iterations 7
smoothSolver:  Solving for k, Initial residual = 0.00655982, Final residual = 8.27268e-07, No Iterations 7
ExecutionTime = 0.42 s  ClockTime = 0 s

Time = 107

smoothSolver:  Solving for Ux, Initial residual = 0.00287214, Final residual = 2.60035e-07, No Iterations 4
smoothSolver:  Solving for Uy, Initial residual = 0.00645709, Final residual = 5.4253e-07, No Iterations 4
GAMG:  Solving for p, Initial residual = 0.0361336, Final residual = 2.9552e-07, No Iterations 14
time step continuity errors : sum local = 5.91458e-07, global = 7.29021e-08, cumulative = 5.33013e-07
smoothSolver:  Solving for epsilon, Initial residual = 0.00345934, Final residual = 2.89732e-07, No Iterations 7
smoothSolver:  Solving for k, Initial residual = 0.00653087, Final residual = 8.28735e-07, No Iterations 7
ExecutionTime = 0.45 s  ClockTime = 0 s

Time = 108

smoothSolver:  Solving for Ux, Initial residual = 0.00285342, Final residual = 2.58618e-07, No Iterations 4
smoothSolver:  Solving for Uy, Initial residual = 0.00643466, Final residual = 5.41808e-07, No Iterations 4
GAMG:  Solving for p, Initial residual = 0.0403462, Final residual = 2.99839e-07, No Iterations 14
time step continuity errors : sum local = 6.0294e-07, global = 7.35732e-08, cumulative = 6.06587e-07
smoothSolver:  Solving for epsilon, Initial residual = 0.00343168, Final residual = 2.87505e-07, No Iterations 7
smoothSolver:  Solving for k, Initial residual = 0.0065066, Final residual = 8.30083e-07, No Iterations 7
ExecutionTime = 0.49 s  ClockTime = 0 s

Time = 109

smoothSolver:  Solving for Ux, Initial residual = 0.00283468, Final residual = 2.57194e-07, No Iterations 4
smoothSolver:  Solving for Uy, Initial residual = 0.00640913, Final residual = 5.41218e-07, No Iterations 4
GAMG:  Solving for p, Initial residual = 0.0400037, Final residual = 9.4032e-07, No Iterations 13
time step continuity errors : sum local = 1.91613e-06, global = -3.75982e-07, cumulative = 2.30605e-07
smoothSolver:  Solving for epsilon, Initial residual = 0.00338913, Final residual = 2.85395e-07, No Iterations 7
smoothSolver:  Solving for k, Initial residual = 0.00647945, Final residual = 8.31225e-07, No Iterations 7
ExecutionTime = 0.52 s  ClockTime = 0 s

Time = 110

smoothSolver:  Solving for Ux, Initial residual = 0.0028156, Final residual = 2.5573e-07, No Iterations 4
smoothSolver:  Solving for Uy, Initial residual = 0.00638728, Final residual = 5.40748e-07, No Iterations 4
GAMG:  Solving for p, Initial residual = 0.0393995, Final residual = 8.57539e-07, No Iterations 13
time step continuity errors : sum local = 1.75482e-06, global = -3.19448e-07, cumulative = -8.88426e-08
smoothSolver:  Solving for epsilon, Initial residual = 0.00335262, Final residual = 2.83281e-07, No Iterations 7
smoothSolver:  Solving for k, Initial residual = 0.00645356, Final residual = 8.32266e-07, No Iterations 7
ExecutionTime = 0.55 s  ClockTime = 0 s

Time = 111

smoothSolver:  Solving for Ux, Initial residual = 0.00279956, Final residual = 2.54312e-07, No Iterations 4
smoothSolver:  Solving for Uy, Initial residual = 0.00637771, Final residual = 5.40514e-07, No Iterations 4
GAMG:  Solving for p, Initial residual = 0.0402768, Final residual = 8.70648e-07, No Iterations 13
time step continuity errors : sum local = 1.77327e-06, global = -3.24983e-07, cumulative = -4.13826e-07
smoothSolver:  Solving for epsilon, Initial residual = 0.00334707, Final residual = 9.95612e-07, No Iterations 6
smoothSolver:  Solving for k, Initial residual = 0.00643604, Final residual = 8.33223e-07, No Iterations 7
ExecutionTime = 0.58 s  ClockTime = 0 s

Time = 112

smoothSolver:  Solving for Ux, Initial residual = 0.00278032, Final residual = 2.52979e-07, No Iterations 4
smoothSolver:  Solving for Uy, Initial residual = 0.00634775, Final residual = 5.3985e-07, No Iterations 4
GAMG:  Solving for p, Initial residual = 0.0350572, Final residual = 9.85312e-07, No Iterations 12
time step continuity errors : sum local = 2.03848e-06, global = 2.21165e-07, cumulative = -1.92661e-07
smoothSolver:  Solving for epsilon, Initial residual = 0.00328212, Final residual = 9.86698e-07, No Iterations 6
smoothSolver:  Solving for k, Initial residual = 0.00640362, Final residual = 8.34036e-07, No Iterations 7
ExecutionTime = 0.62 s  ClockTime = 0 s

Time = 113

smoothSolver:  Solving for Ux, Initial residual = 0.00276133, Final residual = 2.51587e-07, No Iterations 4
smoothSolver:  Solving for Uy, Initial residual = 0.00632806, Final residual = 5.3987e-07, No Iterations 4
GAMG:  Solving for p, Initial residual = 0.0380395, Final residual = 4.48463e-07, No Iterations 13
time step continuity errors : sum local = 9.34624e-07, global = 1.72721e-07, cumulative = -1.99396e-08
smoothSolver:  Solving for epsilon, Initial residual = 0.00324644, Final residual = 9.77718e-07, No Iterations 6
smoothSolver:  Solving for k, Initial residual = 0.00637914, Final residual = 8.34619e-07, No Iterations 7
ExecutionTime = 0.65 s  ClockTime = 0 s

Time = 114

smoothSolver:  Solving for Ux, Initial residual = 0.00274264, Final residual = 2.50146e-07, No Iterations 4
smoothSolver:  Solving for Uy, Initial residual = 0.00631472, Final residual = 5.40296e-07, No Iterations 4
GAMG:  Solving for p, Initial residual = 0.0359451, Final residual = 4.95985e-07, No Iterations 13
time step continuity errors : sum local = 1.03401e-06, global = 1.00963e-07, cumulative = 8.10232e-08
smoothSolver:  Solving for epsilon, Initial residual = 0.00320313, Final residual = 9.68774e-07, No Iterations 6
smoothSolver:  Solving for k, Initial residual = 0.00635431, Final residual = 8.35229e-07, No Iterations 7
ExecutionTime = 0.68 s  ClockTime = 0 s

Time = 115

smoothSolver:  Solving for Ux, Initial residual = 0.00272552, Final residual = 2.48719e-07, No Iterations 4
smoothSolver:  Solving for Uy, Initial residual = 0.00630218, Final residual = 5.41035e-07, No Iterations 4
GAMG:  Solving for p, Initial residual = 0.0388338, Final residual = 8.93996e-07, No Iterations 12
time step continuity errors : sum local = 1.87883e-06, global = 2.17924e-07, cumulative = 2.98948e-07
smoothSolver:  Solving for epsilon, Initial residual = 0.00318431, Final residual = 9.59649e-07, No Iterations 6
smoothSolver:  Solving for k, Initial residual = 0.00633379, Final residual = 8.35702e-07, No Iterations 7
ExecutionTime = 0.71 s  ClockTime = 0 s

Time = 116

smoothSolver:  Solving for Ux, Initial residual = 0.00270636, Final residual = 2.47395e-07, No Iterations 4
smoothSolver:  Solving for Uy, Initial residual = 0.00627763, Final residual = 5.41074e-07, No Iterations 4
GAMG:  Solving for p, Initial residual = 0.0329324, Final residual = 5.72556e-07, No Iterations 13
time step continuity errors : sum local = 1.21256e-06, global = 1.38892e-07, cumulative = 4.3784e-07
smoothSolver:  Solving for epsilon, Initial residual = 0.00312716, Final residual = 9.50797e-07, No Iterations 6
smoothSolver:  Solving for k, Initial residual = 0.00630403, Final residual = 8.36044e-07, No Iterations 7
ExecutionTime = 0.74 s  ClockTime = 0 s

Time = 117

smoothSolver:  Solving for Ux, Initial residual = 0.00268775, Final residual = 2.46031e-07, No Iterations 4
smoothSolver:  Solving for Uy, Initial residual = 0.00626662, Final residual = 5.41674e-07, No Iterations 4
GAMG:  Solving for p, Initial residual = 0.0332623, Final residual = 6.14947e-07, No Iterations 13
time step continuity errors : sum local = 1.30417e-06, global = 1.56632e-07, cumulative = 5.94472e-07
smoothSolver:  Solving for epsilon, Initial residual = 0.00310136, Final residual = 9.4114e-07, No Iterations 6
smoothSolver:  Solving for k, Initial residual = 0.00628397, Final residual = 8.36611e-07, No Iterations 7
ExecutionTime = 0.78 s  ClockTime = 1 s

Time = 118

smoothSolver:  Solving for Ux, Initial residual = 0.00266953, Final residual = 2.44669e-07, No Iterations 4
smoothSolver:  Solving for Uy, Initial residual = 0.00625374, Final residual = 5.42634e-07, No Iterations 4
GAMG:  Solving for p, Initial residual = 0.0376113, Final residual = 6.63896e-07, No Iterations 13
time step continuity errors : sum local = 1.42645e-06, global = 1.64854e-07, cumulative = 7.59326e-07
smoothSolver:  Solving for epsilon, Initial residual = 0.00305818, Final residual = 9.32065e-07, No Iterations 6
smoothSolver:  Solving for k, Initial residual = 0.0062586, Final residual = 8.37082e-07, No Iterations 7
ExecutionTime = 0.82 s  ClockTime = 1 s

Time = 119

smoothSolver:  Solving for Ux, Initial residual = 0.00265235, Final residual = 2.43292e-07, No Iterations 4
smoothSolver:  Solving for Uy, Initial residual = 0.00624394, Final residual = 5.43885e-07, No Iterations 4
GAMG:  Solving for p, Initial residual = 0.0370615, Final residual = 5.74478e-07, No Iterations 13
time step continuity errors : sum local = 1.23492e-06, global = 1.38733e-07, cumulative = 8.98059e-07
smoothSolver:  Solving for epsilon, Initial residual = 0.0030512, Final residual = 9.23058e-07, No Iterations 6
smoothSolver:  Solving for k, Initial residual = 0.00624063, Final residual = 8.37482e-07, No Iterations 7
ExecutionTime = 0.85 s  ClockTime = 1 s

Time = 120

smoothSolver:  Solving for Ux, Initial residual = 0.00263514, Final residual = 2.41952e-07, No Iterations 4
smoothSolver:  Solving for Uy, Initial residual = 0.00622853, Final residual = 5.44792e-07, No Iterations 4
GAMG:  Solving for p, Initial residual = 0.0426282, Final residual = 6.26469e-07, No Iterations 13
time step continuity errors : sum local = 1.34985e-06, global = -2.21203e-08, cumulative = 8.75939e-07
smoothSolver:  Solving for epsilon, Initial residual = 0.0030273, Final residual = 9.12939e-07, No Iterations 6
smoothSolver:  Solving for k, Initial residual = 0.00621878, Final residual = 8.37991e-07, No Iterations 7
ExecutionTime = 0.88 s  ClockTime = 1 s

Time = 121

smoothSolver:  Solving for Ux, Initial residual = 0.00261768, Final residual = 2.40661e-07, No Iterations 4
smoothSolver:  Solving for Uy, Initial residual = 0.006212, Final residual = 5.45138e-07, No Iterations 4
GAMG:  Solving for p, Initial residual = 0.0330048, Final residual = 8.18686e-07, No Iterations 13
time step continuity errors : sum local = 1.78638e-06, global = 2.40324e-07, cumulative = 1.11626e-06
smoothSolver:  Solving for epsilon, Initial residual = 0.0029673, Final residual = 9.03435e-07, No Iterations 6
smoothSolver:  Solving for k, Initial residual = 0.00619413, Final residual = 8.38291e-07, No Iterations 7
ExecutionTime = 0.91 s  ClockTime = 1 s

Time = 122

smoothSolver:  Solving for Ux, Initial residual = 0.00259862, Final residual = 2.39336e-07, No Iterations 4
smoothSolver:  Solving for Uy, Initial residual = 0.00620339, Final residual = 5.46674e-07, No Iterations 4
GAMG:  Solving for p, Initial residual = 0.0386775, Final residual = 8.49215e-07, No Iterations 13
time step continuity errors : sum local = 1.86519e-06, global = 2.49817e-07, cumulative = 1.36608e-06
smoothSolver:  Solving for epsilon, Initial residual = 0.00294384, Final residual = 8.94439e-07, No Iterations 6
smoothSolver:  Solving for k, Initial residual = 0.00617382, Final residual = 8.38588e-07, No Iterations 7
ExecutionTime = 0.94 s  ClockTime = 1 s

Time = 123

smoothSolver:  Solving for Ux, Initial residual = 0.00258002, Final residual = 2.3801e-07, No Iterations 4
smoothSolver:  Solving for Uy, Initial residual = 0.00619357, Final residual = 5.48575e-07, No Iterations 4
GAMG:  Solving for p, Initial residual = 0.03643, Final residual = 7.26625e-07, No Iterations 13
time step continuity errors : sum local = 1.59893e-06, global = 2.05621e-07, cumulative = 1.5717e-06
smoothSolver:  Solving for epsilon, Initial residual = 0.00289665, Final residual = 8.84706e-07, No Iterations 6
smoothSolver:  Solving for k, Initial residual = 0.00615222, Final residual = 8.38886e-07, No Iterations 7
ExecutionTime = 0.97 s  ClockTime = 1 s

Time = 124

smoothSolver:  Solving for Ux, Initial residual = 0.00256328, Final residual = 2.36706e-07, No Iterations 4
smoothSolver:  Solving for Uy, Initial residual = 0.00618709, Final residual = 5.50286e-07, No Iterations 4
GAMG:  Solving for p, Initial residual = 0.0328349, Final residual = 5.16257e-07, No Iterations 13
time step continuity errors : sum local = 1.14364e-06, global = 1.21303e-07, cumulative = 1.693e-06
smoothSolver:  Solving for epsilon, Initial residual = 0.0028628, Final residual = 8.74523e-07, No Iterations 6
smoothSolver:  Solving for k, Initial residual = 0.00613047, Final residual = 8.38893e-07, No Iterations 7
ExecutionTime = 1.01 s  ClockTime = 1 s

Time = 125

smoothSolver:  Solving for Ux, Initial residual = 0.00254629, Final residual = 2.35465e-07, No Iterations 4
smoothSolver:  Solving for Uy, Initial residual = 0.00617327, Final residual = 5.51239e-07, No Iterations 4
GAMG:  Solving for p, Initial residual = 0.0408215, Final residual = 7.13096e-07, No Iterations 13
time step continuity errors : sum local = 1.58758e-06, global = -1.80084e-07, cumulative = 1.51292e-06
smoothSolver:  Solving for epsilon, Initial residual = 0.00283424, Final residual = 8.64913e-07, No Iterations 6
smoothSolver:  Solving for k, Initial residual = 0.00611097, Final residual = 8.38891e-07, No Iterations 7
ExecutionTime = 1.04 s  ClockTime = 1 s

Time = 126

smoothSolver:  Solving for Ux, Initial residual = 0.00253004, Final residual = 2.34228e-07, No Iterations 4
smoothSolver:  Solving for Uy, Initial residual = 0.00616471, Final residual = 5.52317e-07, No Iterations 4
GAMG:  Solving for p, Initial residual = 0.0311169, Final residual = 8.67833e-07, No Iterations 13
time step continuity errors : sum local = 1.93751e-06, global = 2.57534e-07, cumulative = 1.77045e-06
smoothSolver:  Solving for epsilon, Initial residual = 0.00277955, Final residual = 8.55549e-07, No Iterations 6
smoothSolver:  Solving for k, Initial residual = 0.00608741, Final residual = 8.38903e-07, No Iterations 7
ExecutionTime = 1.07 s  ClockTime = 1 s

Time = 127

smoothSolver:  Solving for Ux, Initial residual = 0.00251098, Final residual = 2.32949e-07, No Iterations 4
smoothSolver:  Solving for Uy, Initial residual = 0.00615271, Final residual = 5.54325e-07, No Iterations 4
GAMG:  Solving for p, Initial residual = 0.038299, Final residual = 9.28239e-07, No Iterations 14
time step continuity errors : sum local = 2.09801e-06, global = -6.38505e-07, cumulative = 1.13195e-06
smoothSolver:  Solving for epsilon, Initial residual = 0.00275401, Final residual = 8.46337e-07, No Iterations 6
smoothSolver:  Solving for k, Initial residual = 0.00606325, Final residual = 8.38657e-07, No Iterations 7
ExecutionTime = 1.11 s  ClockTime = 1 s

Time = 128

smoothSolver:  Solving for Ux, Initial residual = 0.00249242, Final residual = 2.31671e-07, No Iterations 4
smoothSolver:  Solving for Uy, Initial residual = 0.00614668, Final residual = 5.56652e-07, No Iterations 4
GAMG:  Solving for p, Initial residual = 0.0356536, Final residual = 7.91596e-07, No Iterations 13
time step continuity errors : sum local = 1.79718e-06, global = 2.3513e-07, cumulative = 1.36708e-06
smoothSolver:  Solving for epsilon, Initial residual = 0.00270688, Final residual = 8.366e-07, No Iterations 6
smoothSolver:  Solving for k, Initial residual = 0.00604143, Final residual = 8.38291e-07, No Iterations 7
ExecutionTime = 1.15 s  ClockTime = 1 s

Time = 129

smoothSolver:  Solving for Ux, Initial residual = 0.0024765, Final residual = 2.30425e-07, No Iterations 4
smoothSolver:  Solving for Uy, Initial residual = 0.00614363, Final residual = 5.58447e-07, No Iterations 4
GAMG:  Solving for p, Initial residual = 0.03114, Final residual = 5.00612e-07, No Iterations 13
time step continuity errors : sum local = 1.13596e-06, global = 1.20517e-07, cumulative = 1.4876e-06
smoothSolver:  Solving for epsilon, Initial residual = 0.00266996, Final residual = 8.27095e-07, No Iterations 6
smoothSolver:  Solving for k, Initial residual = 0.00602073, Final residual = 8.37937e-07, No Iterations 7
ExecutionTime = 1.17 s  ClockTime = 1 s

Time = 130

smoothSolver:  Solving for Ux, Initial residual = 0.00246008, Final residual = 2.2925e-07, No Iterations 4
smoothSolver:  Solving for Uy, Initial residual = 0.00613245, Final residual = 5.6e-07, No Iterations 4
GAMG:  Solving for p, Initial residual = 0.0389738, Final residual = 9.91306e-07, No Iterations 12
time step continuity errors : sum local = 2.26905e-06, global = 5.48599e-07, cumulative = 2.0362e-06
smoothSolver:  Solving for epsilon, Initial residual = 0.00264704, Final residual = 8.18077e-07, No Iterations 6
smoothSolver:  Solving for k, Initial residual = 0.00599915, Final residual = 8.37334e-07, No Iterations 7
ExecutionTime = 1.21 s  ClockTime = 1 s

Time = 131

smoothSolver:  Solving for Ux, Initial residual = 0.00244449, Final residual = 2.28088e-07, No Iterations 4
smoothSolver:  Solving for Uy, Initial residual = 0.00613092, Final residual = 5.6157e-07, No Iterations 4
GAMG:  Solving for p, Initial residual = 0.0302324, Final residual = 9.14977e-07, No Iterations 13
time step continuity errors : sum local = 2.10788e-06, global = 2.82471e-07, cumulative = 2.31867e-06
smoothSolver:  Solving for epsilon, Initial residual = 0.00259375, Final residual = 8.09011e-07, No Iterations 6
smoothSolver:  Solving for k, Initial residual = 0.00597248, Final residual = 8.36624e-07, No Iterations 7
ExecutionTime = 1.24 s  ClockTime = 1 s

Time = 132

smoothSolver:  Solving for Ux, Initial residual = 0.0024264, Final residual = 2.26859e-07, No Iterations 4
smoothSolver:  Solving for Uy, Initial residual = 0.00612348, Final residual = 5.6382e-07, No Iterations 4
GAMG:  Solving for p, Initial residual = 0.0348553, Final residual = 9.84745e-07, No Iterations 13
time step continuity errors : sum local = 2.27924e-06, global = 3.06908e-07, cumulative = 2.62557e-06
smoothSolver:  Solving for epsilon, Initial residual = 0.00257779, Final residual = 8.00108e-07, No Iterations 6
smoothSolver:  Solving for k, Initial residual = 0.00595033, Final residual = 8.35807e-07, No Iterations 7
ExecutionTime = 1.27 s  ClockTime = 1 s

Time = 133

smoothSolver:  Solving for Ux, Initial residual = 0.00240879, Final residual = 2.25646e-07, No Iterations 4
smoothSolver:  Solving for Uy, Initial residual = 0.00611292, Final residual = 5.66058e-07, No Iterations 4
GAMG:  Solving for p, Initial residual = 0.0352145, Final residual = 9.08318e-07, No Iterations 13
time step continuity errors : sum local = 2.12329e-06, global = 2.81681e-07, cumulative = 2.90726e-06
smoothSolver:  Solving for epsilon, Initial residual = 0.00253536, Final residual = 7.91846e-07, No Iterations 6
smoothSolver:  Solving for k, Initial residual = 0.00592366, Final residual = 8.34727e-07, No Iterations 7
ExecutionTime = 1.3 s  ClockTime = 1 s

Time = 134

smoothSolver:  Solving for Ux, Initial residual = 0.00239326, Final residual = 2.24452e-07, No Iterations 4
smoothSolver:  Solving for Uy, Initial residual = 0.00611482, Final residual = 5.68388e-07, No Iterations 4
GAMG:  Solving for p, Initial residual = 0.0294912, Final residual = 4.58877e-07, No Iterations 13
time step continuity errors : sum local = 1.07385e-06, global = 9.84616e-08, cumulative = 3.00572e-06
smoothSolver:  Solving for epsilon, Initial residual = 0.00250241, Final residual = 7.82994e-07, No Iterations 6
smoothSolver:  Solving for k, Initial residual = 0.00590187, Final residual = 8.33436e-07, No Iterations 7
ExecutionTime = 1.33 s  ClockTime = 1 s

Time = 135

smoothSolver:  Solving for Ux, Initial residual = 0.00237798, Final residual = 2.2334e-07, No Iterations 4
smoothSolver:  Solving for Uy, Initial residual = 0.00611266, Final residual = 5.70518e-07, No Iterations 4
GAMG:  Solving for p, Initial residual = 0.0366806, Final residual = 2.9857e-07, No Iterations 14
time step continuity errors : sum local = 7.00732e-07, global = 7.18312e-08, cumulative = 3.07755e-06
smoothSolver:  Solving for epsilon, Initial residual = 0.00248313, Final residual = 7.74152e-07, No Iterations 6
smoothSolver:  Solving for k, Initial residual = 0.00587726, Final residual = 8.32153e-07, No Iterations 7
ExecutionTime = 1.38 s  ClockTime = 1 s

Time = 136

smoothSolver:  Solving for Ux, Initial residual = 0.0023633, Final residual = 2.22234e-07, No Iterations 4
smoothSolver:  Solving for Uy, Initial residual = 0.00611318, Final residual = 5.72348e-07, No Iterations 4
GAMG:  Solving for p, Initial residual = 0.0296593, Final residual = 9.11136e-07, No Iterations 13
time step continuity errors : sum local = 2.15972e-06, global = 2.81993e-07, cumulative = 3.35954e-06
smoothSolver:  Solving for epsilon, Initial residual = 0.00243184, Final residual = 7.66172e-07, No Iterations 6
smoothSolver:  Solving for k, Initial residual = 0.00584751, Final residual = 8.305e-07, No Iterations 7
ExecutionTime = 1.41 s  ClockTime = 1 s

Time = 137

smoothSolver:  Solving for Ux, Initial residual = 0.00234622, Final residual = 2.21084e-07, No Iterations 4
smoothSolver:  Solving for Uy, Initial residual = 0.0061094, Final residual = 5.74932e-07, No Iterations 4
GAMG:  Solving for p, Initial residual = 0.0335126, Final residual = 9.50794e-07, No Iterations 13
time step continuity errors : sum local = 2.26629e-06, global = 2.84818e-07, cumulative = 3.64436e-06
smoothSolver:  Solving for epsilon, Initial residual = 0.00240481, Final residual = 7.58264e-07, No Iterations 6
smoothSolver:  Solving for k, Initial residual = 0.00582114, Final residual = 8.28787e-07, No Iterations 7
ExecutionTime = 1.43 s  ClockTime = 1 s

Time = 138

smoothSolver:  Solving for Ux, Initial residual = 0.00233019, Final residual = 2.19911e-07, No Iterations 4
smoothSolver:  Solving for Uy, Initial residual = 0.00610734, Final residual = 5.77687e-07, No Iterations 4
GAMG:  Solving for p, Initial residual = 0.0276084, Final residual = 3.76439e-07, No Iterations 14
time step continuity errors : sum local = 8.97458e-07, global = 1.14672e-07, cumulative = 3.75903e-06
smoothSolver:  Solving for epsilon, Initial residual = 0.00235861, Final residual = 7.49726e-07, No Iterations 6
smoothSolver:  Solving for k, Initial residual = 0.00579139, Final residual = 8.26787e-07, No Iterations 7
ExecutionTime = 1.47 s  ClockTime = 1 s

Time = 139

smoothSolver:  Solving for Ux, Initial residual = 0.00231515, Final residual = 2.1883e-07, No Iterations 4
smoothSolver:  Solving for Uy, Initial residual = 0.00610914, Final residual = 5.79961e-07, No Iterations 4
GAMG:  Solving for p, Initial residual = 0.0337924, Final residual = 3.16172e-07, No Iterations 14
time step continuity errors : sum local = 7.59044e-07, global = 9.80418e-08, cumulative = 3.85707e-06
smoothSolver:  Solving for epsilon, Initial residual = 0.0023375, Final residual = 7.41514e-07, No Iterations 6
smoothSolver:  Solving for k, Initial residual = 0.00576498, Final residual = 8.24547e-07, No Iterations 7
ExecutionTime = 1.5 s  ClockTime = 1 s

Time = 140

smoothSolver:  Solving for Ux, Initial residual = 0.00230088, Final residual = 2.1778e-07, No Iterations 4
smoothSolver:  Solving for Uy, Initial residual = 0.0061175, Final residual = 5.82427e-07, No Iterations 4
GAMG:  Solving for p, Initial residual = 0.0278437, Final residual = 6.83175e-07, No Iterations 13
time step continuity errors : sum local = 1.64967e-06, global = 1.79259e-07, cumulative = 4.03633e-06
smoothSolver:  Solving for epsilon, Initial residual = 0.00230946, Final residual = 7.33735e-07, No Iterations 6
smoothSolver:  Solving for k, Initial residual = 0.00573732, Final residual = 8.22249e-07, No Iterations 7
ExecutionTime = 1.53 s  ClockTime = 1 s

Time = 141

smoothSolver:  Solving for Ux, Initial residual = 0.0022849, Final residual = 2.16689e-07, No Iterations 4
smoothSolver:  Solving for Uy, Initial residual = 0.00611861, Final residual = 5.85696e-07, No Iterations 4
GAMG:  Solving for p, Initial residual = 0.0319775, Final residual = 6.92893e-07, No Iterations 13
time step continuity errors : sum local = 1.67932e-06, global = 1.8539e-07, cumulative = 4.22172e-06
smoothSolver:  Solving for epsilon, Initial residual = 0.00228638, Final residual = 7.25999e-07, No Iterations 6
smoothSolver:  Solving for k, Initial residual = 0.00570978, Final residual = 8.19674e-07, No Iterations 7
ExecutionTime = 1.57 s  ClockTime = 1 s

Time = 142

smoothSolver:  Solving for Ux, Initial residual = 0.00226977, Final residual = 2.15559e-07, No Iterations 4
smoothSolver:  Solving for Uy, Initial residual = 0.00612096, Final residual = 5.88862e-07, No Iterations 4
GAMG:  Solving for p, Initial residual = 0.0268659, Final residual = 3.25987e-07, No Iterations 14
time step continuity errors : sum local = 7.94092e-07, global = 1.09698e-07, cumulative = 4.33142e-06
smoothSolver:  Solving for epsilon, Initial residual = 0.00225083, Final residual = 7.18166e-07, No Iterations 6
smoothSolver:  Solving for k, Initial residual = 0.00567898, Final residual = 8.16825e-07, No Iterations 7
ExecutionTime = 1.61 s  ClockTime = 1 s

Time = 143

smoothSolver:  Solving for Ux, Initial residual = 0.00225552, Final residual = 2.14498e-07, No Iterations 4
smoothSolver:  Solving for Uy, Initial residual = 0.00613151, Final residual = 5.91669e-07, No Iterations 4
GAMG:  Solving for p, Initial residual = 0.0323672, Final residual = 2.78001e-07, No Iterations 14
time step continuity errors : sum local = 6.7887e-07, global = 9.12015e-08, cumulative = 4.42262e-06
smoothSolver:  Solving for epsilon, Initial residual = 0.00223205, Final residual = 7.10495e-07, No Iterations 6
smoothSolver:  Solving for k, Initial residual = 0.0056523, Final residual = 8.13819e-07, No Iterations 7
ExecutionTime = 1.64 s  ClockTime = 1 s

Time = 144

smoothSolver:  Solving for Ux, Initial residual = 0.00224178, Final residual = 2.13492e-07, No Iterations 4
smoothSolver:  Solving for Uy, Initial residual = 0.00614873, Final residual = 5.94954e-07, No Iterations 4
GAMG:  Solving for p, Initial residual = 0.0285865, Final residual = 3.97784e-07, No Iterations 14
time step continuity errors : sum local = 9.76494e-07, global = 1.21936e-07, cumulative = 4.54456e-06
smoothSolver:  Solving for epsilon, Initial residual = 0.00221036, Final residual = 7.02817e-07, No Iterations 6
smoothSolver:  Solving for k, Initial residual = 0.00562098, Final residual = 8.10631e-07, No Iterations 7
ExecutionTime = 1.67 s  ClockTime = 1 s

Time = 145

smoothSolver:  Solving for Ux, Initial residual = 0.00222613, Final residual = 2.12433e-07, No Iterations 4
smoothSolver:  Solving for Uy, Initial residual = 0.00615749, Final residual = 5.98964e-07, No Iterations 4
GAMG:  Solving for p, Initial residual = 0.0327185, Final residual = 5.53608e-07, No Iterations 13
time step continuity errors : sum local = 1.37144e-06, global = 1.56486e-07, cumulative = 4.70104e-06
smoothSolver:  Solving for epsilon, Initial residual = 0.00218433, Final residual = 6.95536e-07, No Iterations 6
smoothSolver:  Solving for k, Initial residual = 0.00558961, Final residual = 8.07286e-07, No Iterations 7
ExecutionTime = 1.7 s  ClockTime = 1 s

Time = 146

smoothSolver:  Solving for Ux, Initial residual = 0.00221155, Final residual = 2.11345e-07, No Iterations 4
smoothSolver:  Solving for Uy, Initial residual = 0.00617387, Final residual = 6.03216e-07, No Iterations 4
GAMG:  Solving for p, Initial residual = 0.025781, Final residual = 3.02595e-07, No Iterations 14
time step continuity errors : sum local = 7.49429e-07, global = 1.07938e-07, cumulative = 4.80898e-06
smoothSolver:  Solving for epsilon, Initial residual = 0.00215062, Final residual = 6.8798e-07, No Iterations 6
smoothSolver:  Solving for k, Initial residual = 0.00555671, Final residual = 8.03718e-07, No Iterations 7
ExecutionTime = 1.73 s  ClockTime = 1 s

Time = 147

smoothSolver:  Solving for Ux, Initial residual = 0.00219764, Final residual = 2.10322e-07, No Iterations 4
smoothSolver:  Solving for Uy, Initial residual = 0.00619671, Final residual = 6.07409e-07, No Iterations 4
GAMG:  Solving for p, Initial residual = 0.0313695, Final residual = 9.03671e-07, No Iterations 13
time step continuity errors : sum local = 2.2401e-06, global = -3.81185e-07, cumulative = 4.4278e-06
smoothSolver:  Solving for epsilon, Initial residual = 0.0021402, Final residual = 6.80454e-07, No Iterations 6
smoothSolver:  Solving for k, Initial residual = 0.00552641, Final residual = 7.99881e-07, No Iterations 7
ExecutionTime = 1.76 s  ClockTime = 2 s

Time = 148

smoothSolver:  Solving for Ux, Initial residual = 0.00218439, Final residual = 2.09305e-07, No Iterations 4
smoothSolver:  Solving for Uy, Initial residual = 0.00622547, Final residual = 6.12042e-07, No Iterations 4
GAMG:  Solving for p, Initial residual = 0.0276895, Final residual = 3.3174e-07, No Iterations 14
time step continuity errors : sum local = 8.29702e-07, global = 9.95831e-08, cumulative = 4.52738e-06
smoothSolver:  Solving for epsilon, Initial residual = 0.00212003, Final residual = 6.73388e-07, No Iterations 6
smoothSolver:  Solving for k, Initial residual = 0.00549158, Final residual = 7.95958e-07, No Iterations 7
ExecutionTime = 1.81 s  ClockTime = 2 s

Time = 149

smoothSolver:  Solving for Ux, Initial residual = 0.00216964, Final residual = 2.08291e-07, No Iterations 4
smoothSolver:  Solving for Uy, Initial residual = 0.00625126, Final residual = 6.17409e-07, No Iterations 4
GAMG:  Solving for p, Initial residual = 0.0310814, Final residual = 3.50234e-07, No Iterations 14
time step continuity errors : sum local = 8.79652e-07, global = 1.08992e-07, cumulative = 4.63637e-06
smoothSolver:  Solving for epsilon, Initial residual = 0.00209856, Final residual = 6.6638e-07, No Iterations 6
smoothSolver:  Solving for k, Initial residual = 0.0054571, Final residual = 7.9181e-07, No Iterations 7
ExecutionTime = 1.84 s  ClockTime = 2 s

Time = 150

smoothSolver:  Solving for Ux, Initial residual = 0.00215564, Final residual = 2.0725e-07, No Iterations 4
smoothSolver:  Solving for Uy, Initial residual = 0.00627974, Final residual = 6.22851e-07, No Iterations 4
GAMG:  Solving for p, Initial residual = 0.025699, Final residual = 2.74946e-07, No Iterations 14
time step continuity errors : sum local = 6.92249e-07, global = 9.92357e-08, cumulative = 4.73561e-06
smoothSolver:  Solving for epsilon, Initial residual = 0.00207582, Final residual = 6.59012e-07, No Iterations 6
smoothSolver:  Solving for k, Initial residual = 0.00542217, Final residual = 7.87421e-07, No Iterations 7
ExecutionTime = 1.88 s  ClockTime = 2 s

Time = 151

smoothSolver:  Solving for Ux, Initial residual = 0.00214266, Final residual = 2.06287e-07, No Iterations 4
smoothSolver:  Solving for Uy, Initial residual = 0.00631179, Final residual = 6.28386e-07, No Iterations 4
GAMG:  Solving for p, Initial residual = 0.0325762, Final residual = 8.68972e-07, No Iterations 13
time step continuity errors : sum local = 2.19113e-06, global = -3.63942e-07, cumulative = 4.37167e-06
smoothSolver:  Solving for epsilon, Initial residual = 0.00207245, Final residual = 6.51885e-07, No Iterations 6
smoothSolver:  Solving for k, Initial residual = 0.00538882, Final residual = 7.82977e-07, No Iterations 7
ExecutionTime = 1.91 s  ClockTime = 2 s

Time = 152

smoothSolver:  Solving for Ux, Initial residual = 0.00212999, Final residual = 2.05313e-07, No Iterations 4
smoothSolver:  Solving for Uy, Initial residual = 0.00635025, Final residual = 6.33768e-07, No Iterations 4
GAMG:  Solving for p, Initial residual = 0.0275444, Final residual = 3.23936e-07, No Iterations 14
time step continuity errors : sum local = 8.23058e-07, global = 1.11895e-07, cumulative = 4.48356e-06
smoothSolver:  Solving for epsilon, Initial residual = 0.00204699, Final residual = 6.44925e-07, No Iterations 6
smoothSolver:  Solving for k, Initial residual = 0.00535011, Final residual = 7.78309e-07, No Iterations 7
ExecutionTime = 1.94 s  ClockTime = 2 s

Time = 153

smoothSolver:  Solving for Ux, Initial residual = 0.00211568, Final residual = 2.04324e-07, No Iterations 4
smoothSolver:  Solving for Uy, Initial residual = 0.00637985, Final residual = 6.39847e-07, No Iterations 4
GAMG:  Solving for p, Initial residual = 0.030237, Final residual = 3.2355e-07, No Iterations 14
time step continuity errors : sum local = 8.27071e-07, global = 1.0568e-07, cumulative = 4.58924e-06
smoothSolver:  Solving for epsilon, Initial residual = 0.00202549, Final residual = 6.37997e-07, No Iterations 6
smoothSolver:  Solving for k, Initial residual = 0.00531244, Final residual = 7.73397e-07, No Iterations 7
ExecutionTime = 1.97 s  ClockTime = 2 s

Time = 154

smoothSolver:  Solving for Ux, Initial residual = 0.00210224, Final residual = 2.03338e-07, No Iterations 4
smoothSolver:  Solving for Uy, Initial residual = 0.00641155, Final residual = 6.45929e-07, No Iterations 4
GAMG:  Solving for p, Initial residual = 0.0248082, Final residual = 9.31151e-07, No Iterations 13
time step continuity errors : sum local = 2.38439e-06, global = -4.07301e-07, cumulative = 4.18194e-06
smoothSolver:  Solving for epsilon, Initial residual = 0.00200559, Final residual = 6.31046e-07, No Iterations 6
smoothSolver:  Solving for k, Initial residual = 0.00527493, Final residual = 7.68448e-07, No Iterations 7
ExecutionTime = 2 s  ClockTime = 2 s

Time = 155

smoothSolver:  Solving for Ux, Initial residual = 0.00208991, Final residual = 2.02427e-07, No Iterations 4
smoothSolver:  Solving for Uy, Initial residual = 0.00645175, Final residual = 6.52174e-07, No Iterations 4
GAMG:  Solving for p, Initial residual = 0.0315405, Final residual = 9.1902e-07, No Iterations 12
time step continuity errors : sum local = 2.35736e-06, global = 2.64179e-07, cumulative = 4.44612e-06
smoothSolver:  Solving for epsilon, Initial residual = 0.00199964, Final residual = 6.24119e-07, No Iterations 6
smoothSolver:  Solving for k, Initial residual = 0.00523716, Final residual = 7.63234e-07, No Iterations 7
ExecutionTime = 2.03 s  ClockTime = 2 s

Time = 156

smoothSolver:  Solving for Ux, Initial residual = 0.00207778, Final residual = 2.0151e-07, No Iterations 4
smoothSolver:  Solving for Uy, Initial residual = 0.00648908, Final residual = 6.57928e-07, No Iterations 4
GAMG:  Solving for p, Initial residual = 0.0262522, Final residual = 2.95767e-07, No Iterations 14
time step continuity errors : sum local = 7.64412e-07, global = 1.06514e-07, cumulative = 4.55263e-06
smoothSolver:  Solving for epsilon, Initial residual = 0.00197574, Final residual = 6.17415e-07, No Iterations 6
smoothSolver:  Solving for k, Initial residual = 0.00519575, Final residual = 7.57904e-07, No Iterations 7
ExecutionTime = 2.07 s  ClockTime = 2 s

Time = 157

smoothSolver:  Solving for Ux, Initial residual = 0.00206415, Final residual = 2.00576e-07, No Iterations 4
smoothSolver:  Solving for Uy, Initial residual = 0.00651862, Final residual = 6.63692e-07, No Iterations 4
GAMG:  Solving for p, Initial residual = 0.0305041, Final residual = 3.03449e-07, No Iterations 14
time step continuity errors : sum local = 7.88575e-07, global = 1.00908e-07, cumulative = 4.65354e-06
smoothSolver:  Solving for epsilon, Initial residual = 0.00196052, Final residual = 6.10956e-07, No Iterations 6
smoothSolver:  Solving for k, Initial residual = 0.00515568, Final residual = 7.52511e-07, No Iterations 7
ExecutionTime = 2.11 s  ClockTime = 2 s

Time = 158

smoothSolver:  Solving for Ux, Initial residual = 0.00205145, Final residual = 1.99616e-07, No Iterations 4
smoothSolver:  Solving for Uy, Initial residual = 0.00655314, Final residual = 6.69954e-07, No Iterations 4
GAMG:  Solving for p, Initial residual = 0.0250092, Final residual = 8.77957e-07, No Iterations 13
time step continuity errors : sum local = 2.28396e-06, global = -3.76291e-07, cumulative = 4.27725e-06
smoothSolver:  Solving for epsilon, Initial residual = 0.00194024, Final residual = 6.0429e-07, No Iterations 6
smoothSolver:  Solving for k, Initial residual = 0.00511485, Final residual = 7.46836e-07, No Iterations 7
ExecutionTime = 2.14 s  ClockTime = 2 s

Time = 159

smoothSolver:  Solving for Ux, Initial residual = 0.00203971, Final residual = 1.98718e-07, No Iterations 4
smoothSolver:  Solving for Uy, Initial residual = 0.00658855, Final residual = 6.76217e-07, No Iterations 4
GAMG:  Solving for p, Initial residual = 0.030888, Final residual = 8.37806e-07, No Iterations 12
time step continuity errors : sum local = 2.18786e-06, global = 2.54173e-07, cumulative = 4.53142e-06
smoothSolver:  Solving for epsilon, Initial residual = 0.00193491, Final residual = 5.97926e-07, No Iterations 6
smoothSolver:  Solving for k, Initial residual = 0.0050762, Final residual = 7.41104e-07, No Iterations 7
ExecutionTime = 2.17 s  ClockTime = 2 s

Time = 160

smoothSolver:  Solving for Ux, Initial residual = 0.00202803, Final residual = 1.97861e-07, No Iterations 4
smoothSolver:  Solving for Uy, Initial residual = 0.00662528, Final residual = 6.81969e-07, No Iterations 4
GAMG:  Solving for p, Initial residual = 0.025309, Final residual = 9.27519e-07, No Iterations 13
time step continuity errors : sum local = 2.43699e-06, global = -4.64444e-07, cumulative = 4.06698e-06
smoothSolver:  Solving for epsilon, Initial residual = 0.00191649, Final residual = 5.91821e-07, No Iterations 6
smoothSolver:  Solving for k, Initial residual = 0.00503497, Final residual = 7.35296e-07, No Iterations 7
ExecutionTime = 2.2 s  ClockTime = 2 s

Time = 161

smoothSolver:  Solving for Ux, Initial residual = 0.00201518, Final residual = 1.96974e-07, No Iterations 4
smoothSolver:  Solving for Uy, Initial residual = 0.00665303, Final residual = 6.8769e-07, No Iterations 4
GAMG:  Solving for p, Initial residual = 0.0290469, Final residual = 9.4458e-07, No Iterations 13
time step continuity errors : sum local = 2.49322e-06, global = -4.82774e-07, cumulative = 3.58421e-06
smoothSolver:  Solving for epsilon, Initial residual = 0.00190454, Final residual = 5.85751e-07, No Iterations 6
smoothSolver:  Solving for k, Initial residual = 0.00499289, Final residual = 7.2929e-07, No Iterations 7
ExecutionTime = 2.23 s  ClockTime = 2 s

Time = 162

smoothSolver:  Solving for Ux, Initial residual = 0.00200323, Final residual = 1.9607e-07, No Iterations 4
smoothSolver:  Solving for Uy, Initial residual = 0.0066837, Final residual = 6.93927e-07, No Iterations 4
GAMG:  Solving for p, Initial residual = 0.0233021, Final residual = 8.41983e-07, No Iterations 13
time step continuity errors : sum local = 2.22689e-06, global = -3.59982e-07, cumulative = 3.22422e-06
smoothSolver:  Solving for epsilon, Initial residual = 0.00188276, Final residual = 5.79931e-07, No Iterations 6
smoothSolver:  Solving for k, Initial residual = 0.00495038, Final residual = 7.2321e-07, No Iterations 7
ExecutionTime = 2.27 s  ClockTime = 2 s

Time = 163

smoothSolver:  Solving for Ux, Initial residual = 0.00199183, Final residual = 1.95211e-07, No Iterations 4
smoothSolver:  Solving for Uy, Initial residual = 0.00671992, Final residual = 7.00011e-07, No Iterations 4
GAMG:  Solving for p, Initial residual = 0.0284488, Final residual = 8.47886e-07, No Iterations 12
time step continuity errors : sum local = 2.25115e-06, global = 2.61219e-07, cumulative = 3.48544e-06
smoothSolver:  Solving for epsilon, Initial residual = 0.00187854, Final residual = 5.74163e-07, No Iterations 6
smoothSolver:  Solving for k, Initial residual = 0.00490986, Final residual = 7.17078e-07, No Iterations 7
ExecutionTime = 2.29 s  ClockTime = 2 s

Time = 164

smoothSolver:  Solving for Ux, Initial residual = 0.00198098, Final residual = 1.94365e-07, No Iterations 4
smoothSolver:  Solving for Uy, Initial residual = 0.00675605, Final residual = 7.05734e-07, No Iterations 4
GAMG:  Solving for p, Initial residual = 0.0249049, Final residual = 9.04894e-07, No Iterations 13
time step continuity errors : sum local = 2.417e-06, global = -4.41744e-07, cumulative = 3.0437e-06
smoothSolver:  Solving for epsilon, Initial residual = 0.00186784, Final residual = 5.68751e-07, No Iterations 6
smoothSolver:  Solving for k, Initial residual = 0.00486701, Final residual = 7.10786e-07, No Iterations 7
ExecutionTime = 2.32 s  ClockTime = 2 s

Time = 165

smoothSolver:  Solving for Ux, Initial residual = 0.00196858, Final residual = 1.93513e-07, No Iterations 4
smoothSolver:  Solving for Uy, Initial residual = 0.00678097, Final residual = 7.11816e-07, No Iterations 4
GAMG:  Solving for p, Initial residual = 0.0277763, Final residual = 9.4615e-07, No Iterations 13
time step continuity errors : sum local = 2.53885e-06, global = -4.5675e-07, cumulative = 2.58695e-06
smoothSolver:  Solving for epsilon, Initial residual = 0.00185417, Final residual = 5.63535e-07, No Iterations 6
smoothSolver:  Solving for k, Initial residual = 0.00482484, Final residual = 7.0453e-07, No Iterations 7
ExecutionTime = 2.36 s  ClockTime = 2 s

Time = 166

smoothSolver:  Solving for Ux, Initial residual = 0.0019573, Final residual = 1.92662e-07, No Iterations 4
smoothSolver:  Solving for Uy, Initial residual = 0.00681209, Final residual = 7.17876e-07, No Iterations 4
GAMG:  Solving for p, Initial residual = 0.023411, Final residual = 8.44939e-07, No Iterations 13
time step continuity errors : sum local = 2.27309e-06, global = -3.46966e-07, cumulative = 2.23998e-06
smoothSolver:  Solving for epsilon, Initial residual = 0.00183965, Final residual = 5.58602e-07, No Iterations 6
smoothSolver:  Solving for k, Initial residual = 0.00478265, Final residual = 6.98162e-07, No Iterations 7
ExecutionTime = 2.39 s  ClockTime = 2 s

Time = 167

smoothSolver:  Solving for Ux, Initial residual = 0.00194647, Final residual = 1.91849e-07, No Iterations 4
smoothSolver:  Solving for Uy, Initial residual = 0.00684534, Final residual = 7.23742e-07, No Iterations 4
GAMG:  Solving for p, Initial residual = 0.0287675, Final residual = 8.65259e-07, No Iterations 12
time step continuity errors : sum local = 2.33577e-06, global = 2.75409e-07, cumulative = 2.51539e-06
smoothSolver:  Solving for epsilon, Initial residual = 0.0018497, Final residual = 5.54247e-07, No Iterations 6
smoothSolver:  Solving for k, Initial residual = 0.0047429, Final residual = 6.9166e-07, No Iterations 7
ExecutionTime = 2.43 s  ClockTime = 2 s

Time = 168

smoothSolver:  Solving for Ux, Initial residual = 0.00193596, Final residual = 1.91042e-07, No Iterations 4
smoothSolver:  Solving for Uy, Initial residual = 0.00687775, Final residual = 7.29577e-07, No Iterations 4
GAMG:  Solving for p, Initial residual = 0.0296379, Final residual = 9.62532e-07, No Iterations 12
time step continuity errors : sum local = 2.60762e-06, global = 2.67678e-07, cumulative = 2.78307e-06
smoothSolver:  Solving for epsilon, Initial residual = 0.00184801, Final residual = 5.50075e-07, No Iterations 6
smoothSolver:  Solving for k, Initial residual = 0.00470099, Final residual = 6.85223e-07, No Iterations 7
ExecutionTime = 2.46 s  ClockTime = 2 s

Time = 169

smoothSolver:  Solving for Ux, Initial residual = 0.00192659, Final residual = 1.90277e-07, No Iterations 4
smoothSolver:  Solving for Uy, Initial residual = 0.00691549, Final residual = 7.35435e-07, No Iterations 4
GAMG:  Solving for p, Initial residual = 0.0276786, Final residual = 9.13788e-07, No Iterations 13
time step continuity errors : sum local = 2.49152e-06, global = -4.63976e-07, cumulative = 2.31909e-06
smoothSolver:  Solving for epsilon, Initial residual = 0.00184757, Final residual = 5.46114e-07, No Iterations 6
smoothSolver:  Solving for k, Initial residual = 0.00466307, Final residual = 6.78739e-07, No Iterations 7
ExecutionTime = 2.49 s  ClockTime = 2 s

Time = 170

smoothSolver:  Solving for Ux, Initial residual = 0.00191444, Final residual = 1.89465e-07, No Iterations 4
smoothSolver:  Solving for Uy, Initial residual = 0.00693383, Final residual = 7.41397e-07, No Iterations 4
GAMG:  Solving for p, Initial residual = 0.0308861, Final residual = 9.6883e-07, No Iterations 13
time step continuity errors : sum local = 2.65228e-06, global = -4.49552e-07, cumulative = 1.86954e-06
smoothSolver:  Solving for epsilon, Initial residual = 0.00183672, Final residual = 5.4262e-07, No Iterations 6
smoothSolver:  Solving for k, Initial residual = 0.00462247, Final residual = 6.72059e-07, No Iterations 7
ExecutionTime = 2.52 s  ClockTime = 2 s

Time = 171

smoothSolver:  Solving for Ux, Initial residual = 0.00190357, Final residual = 1.88665e-07, No Iterations 4
smoothSolver:  Solving for Uy, Initial residual = 0.00696053, Final residual = 7.47034e-07, No Iterations 4
GAMG:  Solving for p, Initial residual = 0.0234113, Final residual = 8.96302e-07, No Iterations 12
time step continuity errors : sum local = 2.45873e-06, global = 2.7866e-07, cumulative = 2.1482e-06
smoothSolver:  Solving for epsilon, Initial residual = 0.00181566, Final residual = 5.39201e-07, No Iterations 6
smoothSolver:  Solving for k, Initial residual = 0.00458075, Final residual = 6.655e-07, No Iterations 7
ExecutionTime = 2.55 s  ClockTime = 2 s

Time = 172

smoothSolver:  Solving for Ux, Initial residual = 0.0018933, Final residual = 1.87941e-07, No Iterations 4
smoothSolver:  Solving for Uy, Initial residual = 0.00699132, Final residual = 7.52928e-07, No Iterations 4
GAMG:  Solving for p, Initial residual = 0.0272473, Final residual = 7.96978e-07, No Iterations 12
time step continuity errors : sum local = 2.19309e-06, global = 2.95216e-07, cumulative = 2.44342e-06
smoothSolver:  Solving for epsilon, Initial residual = 0.00182351, Final residual = 5.36103e-07, No Iterations 6
smoothSolver:  Solving for k, Initial residual = 0.00454768, Final residual = 6.58859e-07, No Iterations 7
ExecutionTime = 2.58 s  ClockTime = 2 s

Time = 173

smoothSolver:  Solving for Ux, Initial residual = 0.0018837, Final residual = 1.87232e-07, No Iterations 4
smoothSolver:  Solving for Uy, Initial residual = 0.00701937, Final residual = 7.58618e-07, No Iterations 4
GAMG:  Solving for p, Initial residual = 0.0246636, Final residual = 8.64074e-07, No Iterations 13
time step continuity errors : sum local = 2.39307e-06, global = -4.06496e-07, cumulative = 2.03692e-06
smoothSolver:  Solving for epsilon, Initial residual = 0.00181738, Final residual = 5.33083e-07, No Iterations 6
smoothSolver:  Solving for k, Initial residual = 0.0045079, Final residual = 6.52142e-07, No Iterations 7
ExecutionTime = 2.62 s  ClockTime = 2 s

Time = 174

smoothSolver:  Solving for Ux, Initial residual = 0.0018727, Final residual = 1.86491e-07, No Iterations 4
smoothSolver:  Solving for Uy, Initial residual = 0.00703822, Final residual = 7.64123e-07, No Iterations 4
GAMG:  Solving for p, Initial residual = 0.0274793, Final residual = 9.00625e-07, No Iterations 13
time step continuity errors : sum local = 2.50623e-06, global = -4.27874e-07, cumulative = 1.60905e-06
smoothSolver:  Solving for epsilon, Initial residual = 0.00181749, Final residual = 5.30509e-07, No Iterations 6
smoothSolver:  Solving for k, Initial residual = 0.00447053, Final residual = 6.45488e-07, No Iterations 7
ExecutionTime = 2.65 s  ClockTime = 2 s

Time = 175

smoothSolver:  Solving for Ux, Initial residual = 0.0018624, Final residual = 1.85731e-07, No Iterations 4
smoothSolver:  Solving for Uy, Initial residual = 0.00706157, Final residual = 7.70036e-07, No Iterations 4
GAMG:  Solving for p, Initial residual = 0.0229528, Final residual = 9.99262e-07, No Iterations 12
time step continuity errors : sum local = 2.7898e-06, global = 3.0481e-07, cumulative = 1.91386e-06
smoothSolver:  Solving for epsilon, Initial residual = 0.00181029, Final residual = 5.28181e-07, No Iterations 6
smoothSolver:  Solving for k, Initial residual = 0.00443386, Final residual = 6.38853e-07, No Iterations 7
ExecutionTime = 2.68 s  ClockTime = 2 s

Time = 176

smoothSolver:  Solving for Ux, Initial residual = 0.00185266, Final residual = 1.85027e-07, No Iterations 4
smoothSolver:  Solving for Uy, Initial residual = 0.0070865, Final residual = 7.75584e-07, No Iterations 4
GAMG:  Solving for p, Initial residual = 0.0295604, Final residual = 8.43082e-07, No Iterations 12
time step continuity errors : sum local = 2.35673e-06, global = 2.73655e-07, cumulative = 2.18751e-06
smoothSolver:  Solving for epsilon, Initial residual = 0.00183825, Final residual = 5.26318e-07, No Iterations 6
smoothSolver:  Solving for k, Initial residual = 0.00440255, Final residual = 6.32165e-07, No Iterations 7
ExecutionTime = 2.71 s  ClockTime = 2 s

Time = 177

smoothSolver:  Solving for Ux, Initial residual = 0.00184361, Final residual = 1.84355e-07, No Iterations 4
smoothSolver:  Solving for Uy, Initial residual = 0.00711502, Final residual = 7.8059e-07, No Iterations 4
GAMG:  Solving for p, Initial residual = 0.0340561, Final residual = 8.94169e-07, No Iterations 12
time step continuity errors : sum local = 2.51361e-06, global = 2.39574e-07, cumulative = 2.42709e-06
smoothSolver:  Solving for epsilon, Initial residual = 0.00184786, Final residual = 5.244e-07, No Iterations 6
smoothSolver:  Solving for k, Initial residual = 0.00436906, Final residual = 6.25561e-07, No Iterations 7
ExecutionTime = 2.74 s  ClockTime = 2 s

Time = 178

smoothSolver:  Solving for Ux, Initial residual = 0.00183484, Final residual = 1.83717e-07, No Iterations 4
smoothSolver:  Solving for Uy, Initial residual = 0.00714144, Final residual = 7.85785e-07, No Iterations 4
GAMG:  Solving for p, Initial residual = 0.0258741, Final residual = 8.70823e-07, No Iterations 13
time step continuity errors : sum local = 2.46101e-06, global = -4.30194e-07, cumulative = 1.99689e-06
smoothSolver:  Solving for epsilon, Initial residual = 0.00185049, Final residual = 5.23153e-07, No Iterations 6
smoothSolver:  Solving for k, Initial residual = 0.00433637, Final residual = 6.18981e-07, No Iterations 7
ExecutionTime = 2.77 s  ClockTime = 3 s

Time = 179

smoothSolver:  Solving for Ux, Initial residual = 0.001824, Final residual = 1.83027e-07, No Iterations 4
smoothSolver:  Solving for Uy, Initial residual = 0.00715192, Final residual = 7.9151e-07, No Iterations 4
GAMG:  Solving for p, Initial residual = 0.0320961, Final residual = 8.65222e-07, No Iterations 13
time step continuity errors : sum local = 2.45693e-06, global = -4.14413e-07, cumulative = 1.58248e-06
smoothSolver:  Solving for epsilon, Initial residual = 0.0018528, Final residual = 5.2215e-07, No Iterations 6
smoothSolver:  Solving for k, Initial residual = 0.00430245, Final residual = 6.12305e-07, No Iterations 7
ExecutionTime = 2.8 s  ClockTime = 3 s

Time = 180

smoothSolver:  Solving for Ux, Initial residual = 0.00181427, Final residual = 1.82316e-07, No Iterations 4
smoothSolver:  Solving for Uy, Initial residual = 0.00717095, Final residual = 7.96934e-07, No Iterations 4
GAMG:  Solving for p, Initial residual = 0.0252156, Final residual = 8.68575e-07, No Iterations 12
time step continuity errors : sum local = 2.46876e-06, global = 2.74428e-07, cumulative = 1.85691e-06
smoothSolver:  Solving for epsilon, Initial residual = 0.00184062, Final residual = 5.21287e-07, No Iterations 6
smoothSolver:  Solving for k, Initial residual = 0.00426622, Final residual = 6.05865e-07, No Iterations 7
ExecutionTime = 2.84 s  ClockTime = 3 s

Time = 181

smoothSolver:  Solving for Ux, Initial residual = 0.00180512, Final residual = 1.81676e-07, No Iterations 4
smoothSolver:  Solving for Uy, Initial residual = 0.00719059, Final residual = 8.01783e-07, No Iterations 4
GAMG:  Solving for p, Initial residual = 0.0270611, Final residual = 7.62269e-07, No Iterations 12
time step continuity errors : sum local = 2.17492e-06, global = 2.94307e-07, cumulative = 2.15121e-06
smoothSolver:  Solving for epsilon, Initial residual = 0.00186266, Final residual = 5.20789e-07, No Iterations 6
smoothSolver:  Solving for k, Initial residual = 0.00423797, Final residual = 5.99437e-07, No Iterations 7
ExecutionTime = 2.87 s  ClockTime = 3 s

Time = 182

smoothSolver:  Solving for Ux, Initial residual = 0.00179611, Final residual = 1.81059e-07, No Iterations 4
smoothSolver:  Solving for Uy, Initial residual = 0.00720879, Final residual = 8.06753e-07, No Iterations 4
GAMG:  Solving for p, Initial residual = 0.0280573, Final residual = 8.44893e-07, No Iterations 12
time step continuity errors : sum local = 2.4211e-06, global = 2.62122e-07, cumulative = 2.41334e-06
smoothSolver:  Solving for epsilon, Initial residual = 0.00186792, Final residual = 5.20769e-07, No Iterations 6
smoothSolver:  Solving for k, Initial residual = 0.00420789, Final residual = 5.93156e-07, No Iterations 7
ExecutionTime = 2.9 s  ClockTime = 3 s

Time = 183

smoothSolver:  Solving for Ux, Initial residual = 0.00178878, Final residual = 1.80498e-07, No Iterations 4
smoothSolver:  Solving for Uy, Initial residual = 0.00723568, Final residual = 8.11461e-07, No Iterations 4
GAMG:  Solving for p, Initial residual = 0.0261812, Final residual = 8.89152e-07, No Iterations 12
time step continuity errors : sum local = 2.55936e-06, global = 3.44819e-07, cumulative = 2.75816e-06
smoothSolver:  Solving for epsilon, Initial residual = 0.0018748, Final residual = 5.20806e-07, No Iterations 6
smoothSolver:  Solving for k, Initial residual = 0.00417843, Final residual = 5.86936e-07, No Iterations 7
ExecutionTime = 2.94 s  ClockTime = 3 s

Time = 184

smoothSolver:  Solving for Ux, Initial residual = 0.00177833, Final residual = 1.7988e-07, No Iterations 4
smoothSolver:  Solving for Uy, Initial residual = 0.00724069, Final residual = 8.16443e-07, No Iterations 4
GAMG:  Solving for p, Initial residual = 0.0290725, Final residual = 9.50314e-07, No Iterations 12
time step continuity errors : sum local = 2.75074e-06, global = 3.38536e-07, cumulative = 3.09669e-06
smoothSolver:  Solving for epsilon, Initial residual = 0.00187599, Final residual = 5.21229e-07, No Iterations 6
smoothSolver:  Solving for k, Initial residual = 0.00414999, Final residual = 5.80886e-07, No Iterations 7
ExecutionTime = 2.97 s  ClockTime = 3 s

Time = 185

smoothSolver:  Solving for Ux, Initial residual = 0.00176899, Final residual = 1.79242e-07, No Iterations 4
smoothSolver:  Solving for Uy, Initial residual = 0.00725203, Final residual = 8.21523e-07, No Iterations 4
GAMG:  Solving for p, Initial residual = 0.0229736, Final residual = 8.44498e-07, No Iterations 12
time step continuity errors : sum local = 2.44822e-06, global = 2.67879e-07, cumulative = 3.36457e-06
smoothSolver:  Solving for epsilon, Initial residual = 0.00187376, Final residual = 5.21891e-07, No Iterations 6
smoothSolver:  Solving for k, Initial residual = 0.004121, Final residual = 5.7479e-07, No Iterations 7
ExecutionTime = 3 s  ClockTime = 3 s

Time = 186

smoothSolver:  Solving for Ux, Initial residual = 0.00176079, Final residual = 1.78671e-07, No Iterations 4
smoothSolver:  Solving for Uy, Initial residual = 0.00727041, Final residual = 8.26275e-07, No Iterations 4
GAMG:  Solving for p, Initial residual = 0.0268066, Final residual = 6.82595e-07, No Iterations 12
time step continuity errors : sum local = 1.97938e-06, global = 2.71452e-07, cumulative = 3.63602e-06
smoothSolver:  Solving for epsilon, Initial residual = 0.00190484, Final residual = 5.22733e-07, No Iterations 6
smoothSolver:  Solving for k, Initial residual = 0.0040988, Final residual = 5.68915e-07, No Iterations 7
ExecutionTime = 3.03 s  ClockTime = 3 s

Time = 187

smoothSolver:  Solving for Ux, Initial residual = 0.00175313, Final residual = 1.78121e-07, No Iterations 4
smoothSolver:  Solving for Uy, Initial residual = 0.00728537, Final residual = 8.30297e-07, No Iterations 4
GAMG:  Solving for p, Initial residual = 0.0325353, Final residual = 6.68961e-07, No Iterations 12
time step continuity errors : sum local = 1.95167e-06, global = 2.08162e-07, cumulative = 3.84418e-06
smoothSolver:  Solving for epsilon, Initial residual = 0.00191591, Final residual = 5.23782e-07, No Iterations 6
smoothSolver:  Solving for k, Initial residual = 0.00407617, Final residual = 5.63125e-07, No Iterations 7
ExecutionTime = 3.06 s  ClockTime = 3 s

Time = 188

smoothSolver:  Solving for Ux, Initial residual = 0.00174582, Final residual = 1.77608e-07, No Iterations 4
smoothSolver:  Solving for Uy, Initial residual = 0.00730261, Final residual = 8.34391e-07, No Iterations 4
GAMG:  Solving for p, Initial residual = 0.0242513, Final residual = 8.66655e-07, No Iterations 12
time step continuity errors : sum local = 2.53807e-06, global = 3.2321e-07, cumulative = 4.16739e-06
smoothSolver:  Solving for epsilon, Initial residual = 0.00192345, Final residual = 5.25768e-07, No Iterations 6
smoothSolver:  Solving for k, Initial residual = 0.0040518, Final residual = 5.57498e-07, No Iterations 7
ExecutionTime = 3.09 s  ClockTime = 3 s

Time = 189

smoothSolver:  Solving for Ux, Initial residual = 0.00173612, Final residual = 1.77078e-07, No Iterations 4
smoothSolver:  Solving for Uy, Initial residual = 0.00730392, Final residual = 8.39016e-07, No Iterations 4
GAMG:  Solving for p, Initial residual = 0.0303648, Final residual = 9.07512e-07, No Iterations 12
time step continuity errors : sum local = 2.67082e-06, global = 3.22236e-07, cumulative = 4.48963e-06
smoothSolver:  Solving for epsilon, Initial residual = 0.00192987, Final residual = 5.27933e-07, No Iterations 6
smoothSolver:  Solving for k, Initial residual = 0.00402852, Final residual = 5.52081e-07, No Iterations 7
ExecutionTime = 3.13 s  ClockTime = 3 s

Time = 190

smoothSolver:  Solving for Ux, Initial residual = 0.00172743, Final residual = 1.76516e-07, No Iterations 4
smoothSolver:  Solving for Uy, Initial residual = 0.00731069, Final residual = 8.43555e-07, No Iterations 4
GAMG:  Solving for p, Initial residual = 0.0238022, Final residual = 7.94656e-07, No Iterations 12
time step continuity errors : sum local = 2.34312e-06, global = 2.416e-07, cumulative = 4.73123e-06
smoothSolver:  Solving for epsilon, Initial residual = 0.00192871, Final residual = 5.30138e-07, No Iterations 6
smoothSolver:  Solving for k, Initial residual = 0.00400578, Final residual = 5.46753e-07, No Iterations 7
ExecutionTime = 3.16 s  ClockTime = 3 s

Time = 191

smoothSolver:  Solving for Ux, Initial residual = 0.0017196, Final residual = 1.76015e-07, No Iterations 4
smoothSolver:  Solving for Uy, Initial residual = 0.0073195, Final residual = 8.47663e-07, No Iterations 4
GAMG:  Solving for p, Initial residual = 0.0255708, Final residual = 6.35138e-07, No Iterations 12
time step continuity errors : sum local = 1.87856e-06, global = 2.45598e-07, cumulative = 4.97683e-06
smoothSolver:  Solving for epsilon, Initial residual = 0.0019585, Final residual = 5.32397e-07, No Iterations 6
smoothSolver:  Solving for k, Initial residual = 0.00398823, Final residual = 5.4162e-07, No Iterations 7
ExecutionTime = 3.19 s  ClockTime = 3 s

Time = 192

smoothSolver:  Solving for Ux, Initial residual = 0.00171218, Final residual = 1.75532e-07, No Iterations 4
smoothSolver:  Solving for Uy, Initial residual = 0.0073286, Final residual = 8.51503e-07, No Iterations 4
GAMG:  Solving for p, Initial residual = 0.0262206, Final residual = 6.30588e-07, No Iterations 12
time step continuity errors : sum local = 1.87243e-06, global = 1.96045e-07, cumulative = 5.17287e-06
smoothSolver:  Solving for epsilon, Initial residual = 0.00196793, Final residual = 5.35e-07, No Iterations 6
smoothSolver:  Solving for k, Initial residual = 0.00396859, Final residual = 5.36584e-07, No Iterations 7
ExecutionTime = 3.22 s  ClockTime = 3 s

Time = 193

smoothSolver:  Solving for Ux, Initial residual = 0.00170614, Final residual = 1.75078e-07, No Iterations 4
smoothSolver:  Solving for Uy, Initial residual = 0.00734368, Final residual = 8.55029e-07, No Iterations 4
GAMG:  Solving for p, Initial residual = 0.0241585, Final residual = 8.14042e-07, No Iterations 12
time step continuity errors : sum local = 2.4265e-06, global = 2.78492e-07, cumulative = 5.45137e-06
smoothSolver:  Solving for epsilon, Initial residual = 0.00197445, Final residual = 5.37539e-07, No Iterations 6
smoothSolver:  Solving for k, Initial residual = 0.00395028, Final residual = 5.31926e-07, No Iterations 7
ExecutionTime = 3.25 s  ClockTime = 3 s

Time = 194

smoothSolver:  Solving for Ux, Initial residual = 0.00169722, Final residual = 1.74593e-07, No Iterations 4
smoothSolver:  Solving for Uy, Initial residual = 0.00733858, Final residual = 8.58832e-07, No Iterations 4
GAMG:  Solving for p, Initial residual = 0.0269762, Final residual = 8.11443e-07, No Iterations 12
time step continuity errors : sum local = 2.43102e-06, global = 2.60689e-07, cumulative = 5.71205e-06
smoothSolver:  Solving for epsilon, Initial residual = 0.00197851, Final residual = 5.40293e-07, No Iterations 6
smoothSolver:  Solving for k, Initial residual = 0.00393115, Final residual = 5.27287e-07, No Iterations 7
ExecutionTime = 3.28 s  ClockTime = 3 s

Time = 195

smoothSolver:  Solving for Ux, Initial residual = 0.00168931, Final residual = 1.741e-07, No Iterations 4
smoothSolver:  Solving for Uy, Initial residual = 0.00734122, Final residual = 8.62706e-07, No Iterations 4
GAMG:  Solving for p, Initial residual = 0.0206801, Final residual = 6.44371e-07, No Iterations 12
time step continuity errors : sum local = 1.93417e-06, global = 1.88688e-07, cumulative = 5.90074e-06
smoothSolver:  Solving for epsilon, Initial residual = 0.00197824, Final residual = 5.4327e-07, No Iterations 6
smoothSolver:  Solving for k, Initial residual = 0.00391119, Final residual = 5.22883e-07, No Iterations 7
ExecutionTime = 3.31 s  ClockTime = 3 s

Time = 196

smoothSolver:  Solving for Ux, Initial residual = 0.00168206, Final residual = 1.73662e-07, No Iterations 4
smoothSolver:  Solving for Uy, Initial residual = 0.00734713, Final residual = 8.66322e-07, No Iterations 4
GAMG:  Solving for p, Initial residual = 0.0237092, Final residual = 5.3048e-07, No Iterations 12
time step continuity errors : sum local = 1.59597e-06, global = 2.09611e-07, cumulative = 6.11035e-06
smoothSolver:  Solving for epsilon, Initial residual = 0.00200819, Final residual = 5.46617e-07, No Iterations 6
smoothSolver:  Solving for k, Initial residual = 0.00389689, Final residual = 5.1867e-07, No Iterations 7
ExecutionTime = 3.35 s  ClockTime = 3 s

Time = 197

smoothSolver:  Solving for Ux, Initial residual = 0.0016751, Final residual = 1.73241e-07, No Iterations 4
smoothSolver:  Solving for Uy, Initial residual = 0.00734845, Final residual = 8.69631e-07, No Iterations 4
GAMG:  Solving for p, Initial residual = 0.0250263, Final residual = 4.98531e-07, No Iterations 12
time step continuity errors : sum local = 1.50577e-06, global = 1.58176e-07, cumulative = 6.26853e-06
smoothSolver:  Solving for epsilon, Initial residual = 0.00201766, Final residual = 5.49967e-07, No Iterations 6
smoothSolver:  Solving for k, Initial residual = 0.00387924, Final residual = 5.14707e-07, No Iterations 7
ExecutionTime = 3.38 s  ClockTime = 3 s

Time = 198

smoothSolver:  Solving for Ux, Initial residual = 0.00166979, Final residual = 1.72845e-07, No Iterations 4
smoothSolver:  Solving for Uy, Initial residual = 0.0073623, Final residual = 8.72596e-07, No Iterations 4
GAMG:  Solving for p, Initial residual = 0.02476, Final residual = 6.99905e-07, No Iterations 12
time step continuity errors : sum local = 2.11972e-06, global = 2.32918e-07, cumulative = 6.50145e-06
smoothSolver:  Solving for epsilon, Initial residual = 0.00202636, Final residual = 5.53186e-07, No Iterations 6
smoothSolver:  Solving for k, Initial residual = 0.00386621, Final residual = 5.10678e-07, No Iterations 7
ExecutionTime = 3.41 s  ClockTime = 3 s

Time = 199

smoothSolver:  Solving for Ux, Initial residual = 0.00166124, Final residual = 1.72396e-07, No Iterations 4
smoothSolver:  Solving for Uy, Initial residual = 0.00735248, Final residual = 8.75694e-07, No Iterations 4
GAMG:  Solving for p, Initial residual = 0.0265132, Final residual = 6.78958e-07, No Iterations 12
time step continuity errors : sum local = 2.0645e-06, global = 2.16673e-07, cumulative = 6.71812e-06
smoothSolver:  Solving for epsilon, Initial residual = 0.00203112, Final residual = 5.56463e-07, No Iterations 6
smoothSolver:  Solving for k, Initial residual = 0.00384678, Final residual = 5.0684e-07, No Iterations 7
ExecutionTime = 3.44 s  ClockTime = 3 s

Time = 200

smoothSolver:  Solving for Ux, Initial residual = 0.00165411, Final residual = 1.71938e-07, No Iterations 4
smoothSolver:  Solving for Uy, Initial residual = 0.00734895, Final residual = 8.78937e-07, No Iterations 4
GAMG:  Solving for p, Initial residual = 0.0191681, Final residual = 5.10082e-07, No Iterations 12
time step continuity errors : sum local = 1.55442e-06, global = 1.48178e-07, cumulative = 6.8663e-06
smoothSolver:  Solving for epsilon, Initial residual = 0.00202996, Final residual = 5.59831e-07, No Iterations 6
smoothSolver:  Solving for k, Initial residual = 0.00382927, Final residual = 5.03169e-07, No Iterations 7
ExecutionTime = 3.51 s  ClockTime = 3 s

streamLine streamlines write:
    seeded 10 particles
    Tracks:10
    Total samples:9785
    Writing data to "/media/suraj/My4TBHD1/git_workspace/ANL/RLLib_Theta/openfoam/multiple_velocity_dynamic_relaxation/postProcessing/sets/streamlines/200"
End

