/*---------------------------------------------------------------------------*\
| =========                 |                                                 |
| \\      /  F ield         | OpenFOAM: The Open Source CFD Toolbox           |
|  \\    /   O peration     | Version:  5.x                                   |
|   \\  /    A nd           | Web:      www.OpenFOAM.org                      |
|    \\/     M anipulation  |                                                 |
\*---------------------------------------------------------------------------*/
Build  : 5.x-7f7d351b741b
Exec   : foamToVTK
Date   : Jun 21 2020
Time   : 16:08:23
Host   : "suraj-MS-7B06"
PID    : 9955
I/O    : uncollated
Case   : /media/suraj/My4TBHD1/git_workspace/ANL/RLLib_Theta/openfoam/multiple_velocity_dynamic_relaxation
nProcs : 1
sigFpe : Enabling floating point exception trapping (FOAM_SIGFPE).
fileModificationChecking : Monitoring run-time modified files using timeStampMaster (fileModificationSkew 10)
allowSystemOperations : Allowing user-supplied system call operations

// * * * * * * * * * * * * * * * * * * * * * * * * * * * * * * * * * * * * * //
Create time

--> FOAM Warning : 
    From function int main(int, char**)
    in file foamToVTK.C at line 336
    Using ASCII rather than binary VTK format because floatScalar and/or label are not 4 bytes in size.

Create mesh for time = 0

Time: 0
    volScalarFields            : v2 nut p k epsilon omega f
    volVectorFields            : U

    Internal  : "/media/suraj/My4TBHD1/git_workspace/ANL/RLLib_Theta/openfoam/multiple_velocity_dynamic_relaxation/VTK/multiple_velocity_dynamic_relaxation_0.vtk"
    Original cells:15000 points:30562   Additional cells:0  additional points:0

    Patch     : "/media/suraj/My4TBHD1/git_workspace/ANL/RLLib_Theta/openfoam/multiple_velocity_dynamic_relaxation/VTK/outlet/outlet_0.vtk"
    Patch     : "/media/suraj/My4TBHD1/git_workspace/ANL/RLLib_Theta/openfoam/multiple_velocity_dynamic_relaxation/VTK/inlet/inlet_0.vtk"
    Patch     : "/media/suraj/My4TBHD1/git_workspace/ANL/RLLib_Theta/openfoam/multiple_velocity_dynamic_relaxation/VTK/lowerWall/lowerWall_0.vtk"
    Patch     : "/media/suraj/My4TBHD1/git_workspace/ANL/RLLib_Theta/openfoam/multiple_velocity_dynamic_relaxation/VTK/upperWall/upperWall_0.vtk"
    Patch     : "/media/suraj/My4TBHD1/git_workspace/ANL/RLLib_Theta/openfoam/multiple_velocity_dynamic_relaxation/VTK/defaultFaces/defaultFaces_0.vtk"
End

/*---------------------------------------------------------------------------*\
| =========                 |                                                 |
| \\      /  F ield         | OpenFOAM: The Open Source CFD Toolbox           |
|  \\    /   O peration     | Version:  5.x                                   |
|   \\  /    A nd           | Web:      www.OpenFOAM.org                      |
|    \\/     M anipulation  |                                                 |
\*---------------------------------------------------------------------------*/
Build  : 5.x-7f7d351b741b
Exec   : foamToVTK
Date   : Jun 21 2020
Time   : 16:08:28
Host   : "suraj-MS-7B06"
PID    : 9981
I/O    : uncollated
Case   : /media/suraj/My4TBHD1/git_workspace/ANL/RLLib_Theta/openfoam/multiple_velocity_dynamic_relaxation
nProcs : 1
sigFpe : Enabling floating point exception trapping (FOAM_SIGFPE).
fileModificationChecking : Monitoring run-time modified files using timeStampMaster (fileModificationSkew 10)
allowSystemOperations : Allowing user-supplied system call operations

// * * * * * * * * * * * * * * * * * * * * * * * * * * * * * * * * * * * * * //
Create time

--> FOAM Warning : 
    From function int main(int, char**)
    in file foamToVTK.C at line 336
    Using ASCII rather than binary VTK format because floatScalar and/or label are not 4 bytes in size.

Create mesh for time = 0

Deleting old VTK files in "/media/suraj/My4TBHD1/git_workspace/ANL/RLLib_Theta/openfoam/multiple_velocity_dynamic_relaxation/VTK"

Time: 0
    volScalarFields            : v2 nut p k epsilon omega f
    volVectorFields            : U

    Internal  : "/media/suraj/My4TBHD1/git_workspace/ANL/RLLib_Theta/openfoam/multiple_velocity_dynamic_relaxation/VTK/multiple_velocity_dynamic_relaxation_0.vtk"
    Original cells:15000 points:30562   Additional cells:0  additional points:0

    Patch     : "/media/suraj/My4TBHD1/git_workspace/ANL/RLLib_Theta/openfoam/multiple_velocity_dynamic_relaxation/VTK/outlet/outlet_0.vtk"
    Patch     : "/media/suraj/My4TBHD1/git_workspace/ANL/RLLib_Theta/openfoam/multiple_velocity_dynamic_relaxation/VTK/inlet/inlet_0.vtk"
    Patch     : "/media/suraj/My4TBHD1/git_workspace/ANL/RLLib_Theta/openfoam/multiple_velocity_dynamic_relaxation/VTK/lowerWall/lowerWall_0.vtk"
    Patch     : "/media/suraj/My4TBHD1/git_workspace/ANL/RLLib_Theta/openfoam/multiple_velocity_dynamic_relaxation/VTK/upperWall/upperWall_0.vtk"
    Patch     : "/media/suraj/My4TBHD1/git_workspace/ANL/RLLib_Theta/openfoam/multiple_velocity_dynamic_relaxation/VTK/defaultFaces/defaultFaces_0.vtk"
Time: 100
    volScalarFields            : p nut k epsilon
    volVectorFields            : U

    Internal  : "/media/suraj/My4TBHD1/git_workspace/ANL/RLLib_Theta/openfoam/multiple_velocity_dynamic_relaxation/VTK/multiple_velocity_dynamic_relaxation_100.vtk"
    Patch     : "/media/suraj/My4TBHD1/git_workspace/ANL/RLLib_Theta/openfoam/multiple_velocity_dynamic_relaxation/VTK/outlet/outlet_100.vtk"
    Patch     : "/media/suraj/My4TBHD1/git_workspace/ANL/RLLib_Theta/openfoam/multiple_velocity_dynamic_relaxation/VTK/inlet/inlet_100.vtk"
    Patch     : "/media/suraj/My4TBHD1/git_workspace/ANL/RLLib_Theta/openfoam/multiple_velocity_dynamic_relaxation/VTK/lowerWall/lowerWall_100.vtk"
    Patch     : "/media/suraj/My4TBHD1/git_workspace/ANL/RLLib_Theta/openfoam/multiple_velocity_dynamic_relaxation/VTK/upperWall/upperWall_100.vtk"
    Patch     : "/media/suraj/My4TBHD1/git_workspace/ANL/RLLib_Theta/openfoam/multiple_velocity_dynamic_relaxation/VTK/defaultFaces/defaultFaces_100.vtk"
    surfScalarFields  : phi
End

/*---------------------------------------------------------------------------*\
| =========                 |                                                 |
| \\      /  F ield         | OpenFOAM: The Open Source CFD Toolbox           |
|  \\    /   O peration     | Version:  5.x                                   |
|   \\  /    A nd           | Web:      www.OpenFOAM.org                      |
|    \\/     M anipulation  |                                                 |
\*---------------------------------------------------------------------------*/
Build  : 5.x-7f7d351b741b
Exec   : foamToVTK
Date   : Jun 21 2020
Time   : 16:08:32
Host   : "suraj-MS-7B06"
PID    : 9998
I/O    : uncollated
Case   : /media/suraj/My4TBHD1/git_workspace/ANL/RLLib_Theta/openfoam/multiple_velocity_dynamic_relaxation
nProcs : 1
sigFpe : Enabling floating point exception trapping (FOAM_SIGFPE).
fileModificationChecking : Monitoring run-time modified files using timeStampMaster (fileModificationSkew 10)
allowSystemOperations : Allowing user-supplied system call operations

// * * * * * * * * * * * * * * * * * * * * * * * * * * * * * * * * * * * * * //
Create time

--> FOAM Warning : 
    From function int main(int, char**)
    in file foamToVTK.C at line 336
    Using ASCII rather than binary VTK format because floatScalar and/or label are not 4 bytes in size.

Create mesh for time = 0

Deleting old VTK files in "/media/suraj/My4TBHD1/git_workspace/ANL/RLLib_Theta/openfoam/multiple_velocity_dynamic_relaxation/VTK"

Time: 0
    volScalarFields            : v2 nut p k epsilon omega f
    volVectorFields            : U

    Internal  : "/media/suraj/My4TBHD1/git_workspace/ANL/RLLib_Theta/openfoam/multiple_velocity_dynamic_relaxation/VTK/multiple_velocity_dynamic_relaxation_0.vtk"
    Original cells:15000 points:30562   Additional cells:0  additional points:0

    Patch     : "/media/suraj/My4TBHD1/git_workspace/ANL/RLLib_Theta/openfoam/multiple_velocity_dynamic_relaxation/VTK/outlet/outlet_0.vtk"
    Patch     : "/media/suraj/My4TBHD1/git_workspace/ANL/RLLib_Theta/openfoam/multiple_velocity_dynamic_relaxation/VTK/inlet/inlet_0.vtk"
    Patch     : "/media/suraj/My4TBHD1/git_workspace/ANL/RLLib_Theta/openfoam/multiple_velocity_dynamic_relaxation/VTK/lowerWall/lowerWall_0.vtk"
    Patch     : "/media/suraj/My4TBHD1/git_workspace/ANL/RLLib_Theta/openfoam/multiple_velocity_dynamic_relaxation/VTK/upperWall/upperWall_0.vtk"
    Patch     : "/media/suraj/My4TBHD1/git_workspace/ANL/RLLib_Theta/openfoam/multiple_velocity_dynamic_relaxation/VTK/defaultFaces/defaultFaces_0.vtk"
Time: 200
    volScalarFields            : p nut k epsilon
    volVectorFields            : U

    Internal  : "/media/suraj/My4TBHD1/git_workspace/ANL/RLLib_Theta/openfoam/multiple_velocity_dynamic_relaxation/VTK/multiple_velocity_dynamic_relaxation_200.vtk"
    Patch     : "/media/suraj/My4TBHD1/git_workspace/ANL/RLLib_Theta/openfoam/multiple_velocity_dynamic_relaxation/VTK/outlet/outlet_200.vtk"
    Patch     : "/media/suraj/My4TBHD1/git_workspace/ANL/RLLib_Theta/openfoam/multiple_velocity_dynamic_relaxation/VTK/inlet/inlet_200.vtk"
    Patch     : "/media/suraj/My4TBHD1/git_workspace/ANL/RLLib_Theta/openfoam/multiple_velocity_dynamic_relaxation/VTK/lowerWall/lowerWall_200.vtk"
    Patch     : "/media/suraj/My4TBHD1/git_workspace/ANL/RLLib_Theta/openfoam/multiple_velocity_dynamic_relaxation/VTK/upperWall/upperWall_200.vtk"
    Patch     : "/media/suraj/My4TBHD1/git_workspace/ANL/RLLib_Theta/openfoam/multiple_velocity_dynamic_relaxation/VTK/defaultFaces/defaultFaces_200.vtk"
    surfScalarFields  : phi
End

/*---------------------------------------------------------------------------*\
| =========                 |                                                 |
| \\      /  F ield         | OpenFOAM: The Open Source CFD Toolbox           |
|  \\    /   O peration     | Version:  5.x                                   |
|   \\  /    A nd           | Web:      www.OpenFOAM.org                      |
|    \\/     M anipulation  |                                                 |
\*---------------------------------------------------------------------------*/
Build  : 5.x-7f7d351b741b
Exec   : foamToVTK
Date   : Jun 21 2020
Time   : 16:08:37
Host   : "suraj-MS-7B06"
PID    : 10007
I/O    : uncollated
Case   : /media/suraj/My4TBHD1/git_workspace/ANL/RLLib_Theta/openfoam/multiple_velocity_dynamic_relaxation
nProcs : 1
sigFpe : Enabling floating point exception trapping (FOAM_SIGFPE).
fileModificationChecking : Monitoring run-time modified files using timeStampMaster (fileModificationSkew 10)
allowSystemOperations : Allowing user-supplied system call operations

// * * * * * * * * * * * * * * * * * * * * * * * * * * * * * * * * * * * * * //
Create time

--> FOAM Warning : 
    From function int main(int, char**)
    in file foamToVTK.C at line 336
    Using ASCII rather than binary VTK format because floatScalar and/or label are not 4 bytes in size.

Create mesh for time = 0

Deleting old VTK files in "/media/suraj/My4TBHD1/git_workspace/ANL/RLLib_Theta/openfoam/multiple_velocity_dynamic_relaxation/VTK"

Time: 0
    volScalarFields            : v2 nut p k epsilon omega f
    volVectorFields            : U

    Internal  : "/media/suraj/My4TBHD1/git_workspace/ANL/RLLib_Theta/openfoam/multiple_velocity_dynamic_relaxation/VTK/multiple_velocity_dynamic_relaxation_0.vtk"
    Original cells:15000 points:30562   Additional cells:0  additional points:0

    Patch     : "/media/suraj/My4TBHD1/git_workspace/ANL/RLLib_Theta/openfoam/multiple_velocity_dynamic_relaxation/VTK/outlet/outlet_0.vtk"
    Patch     : "/media/suraj/My4TBHD1/git_workspace/ANL/RLLib_Theta/openfoam/multiple_velocity_dynamic_relaxation/VTK/inlet/inlet_0.vtk"
    Patch     : "/media/suraj/My4TBHD1/git_workspace/ANL/RLLib_Theta/openfoam/multiple_velocity_dynamic_relaxation/VTK/lowerWall/lowerWall_0.vtk"
    Patch     : "/media/suraj/My4TBHD1/git_workspace/ANL/RLLib_Theta/openfoam/multiple_velocity_dynamic_relaxation/VTK/upperWall/upperWall_0.vtk"
    Patch     : "/media/suraj/My4TBHD1/git_workspace/ANL/RLLib_Theta/openfoam/multiple_velocity_dynamic_relaxation/VTK/defaultFaces/defaultFaces_0.vtk"
Time: 300
    volScalarFields            : p nut k epsilon
    volVectorFields            : U

    Internal  : "/media/suraj/My4TBHD1/git_workspace/ANL/RLLib_Theta/openfoam/multiple_velocity_dynamic_relaxation/VTK/multiple_velocity_dynamic_relaxation_300.vtk"
    Patch     : "/media/suraj/My4TBHD1/git_workspace/ANL/RLLib_Theta/openfoam/multiple_velocity_dynamic_relaxation/VTK/outlet/outlet_300.vtk"
    Patch     : "/media/suraj/My4TBHD1/git_workspace/ANL/RLLib_Theta/openfoam/multiple_velocity_dynamic_relaxation/VTK/inlet/inlet_300.vtk"
    Patch     : "/media/suraj/My4TBHD1/git_workspace/ANL/RLLib_Theta/openfoam/multiple_velocity_dynamic_relaxation/VTK/lowerWall/lowerWall_300.vtk"
    Patch     : "/media/suraj/My4TBHD1/git_workspace/ANL/RLLib_Theta/openfoam/multiple_velocity_dynamic_relaxation/VTK/upperWall/upperWall_300.vtk"
    Patch     : "/media/suraj/My4TBHD1/git_workspace/ANL/RLLib_Theta/openfoam/multiple_velocity_dynamic_relaxation/VTK/defaultFaces/defaultFaces_300.vtk"
    surfScalarFields  : phi
End

/*---------------------------------------------------------------------------*\
| =========                 |                                                 |
| \\      /  F ield         | OpenFOAM: The Open Source CFD Toolbox           |
|  \\    /   O peration     | Version:  5.x                                   |
|   \\  /    A nd           | Web:      www.OpenFOAM.org                      |
|    \\/     M anipulation  |                                                 |
\*---------------------------------------------------------------------------*/
Build  : 5.x-7f7d351b741b
Exec   : foamToVTK
Date   : Jun 21 2020
Time   : 16:08:42
Host   : "suraj-MS-7B06"
PID    : 10015
I/O    : uncollated
Case   : /media/suraj/My4TBHD1/git_workspace/ANL/RLLib_Theta/openfoam/multiple_velocity_dynamic_relaxation
nProcs : 1
sigFpe : Enabling floating point exception trapping (FOAM_SIGFPE).
fileModificationChecking : Monitoring run-time modified files using timeStampMaster (fileModificationSkew 10)
allowSystemOperations : Allowing user-supplied system call operations

// * * * * * * * * * * * * * * * * * * * * * * * * * * * * * * * * * * * * * //
Create time

--> FOAM Warning : 
    From function int main(int, char**)
    in file foamToVTK.C at line 336
    Using ASCII rather than binary VTK format because floatScalar and/or label are not 4 bytes in size.

Create mesh for time = 0

Deleting old VTK files in "/media/suraj/My4TBHD1/git_workspace/ANL/RLLib_Theta/openfoam/multiple_velocity_dynamic_relaxation/VTK"

Time: 0
    volScalarFields            : v2 nut p k epsilon omega f
    volVectorFields            : U

    Internal  : "/media/suraj/My4TBHD1/git_workspace/ANL/RLLib_Theta/openfoam/multiple_velocity_dynamic_relaxation/VTK/multiple_velocity_dynamic_relaxation_0.vtk"
    Original cells:15000 points:30562   Additional cells:0  additional points:0

    Patch     : "/media/suraj/My4TBHD1/git_workspace/ANL/RLLib_Theta/openfoam/multiple_velocity_dynamic_relaxation/VTK/outlet/outlet_0.vtk"
    Patch     : "/media/suraj/My4TBHD1/git_workspace/ANL/RLLib_Theta/openfoam/multiple_velocity_dynamic_relaxation/VTK/inlet/inlet_0.vtk"
    Patch     : "/media/suraj/My4TBHD1/git_workspace/ANL/RLLib_Theta/openfoam/multiple_velocity_dynamic_relaxation/VTK/lowerWall/lowerWall_0.vtk"
    Patch     : "/media/suraj/My4TBHD1/git_workspace/ANL/RLLib_Theta/openfoam/multiple_velocity_dynamic_relaxation/VTK/upperWall/upperWall_0.vtk"
    Patch     : "/media/suraj/My4TBHD1/git_workspace/ANL/RLLib_Theta/openfoam/multiple_velocity_dynamic_relaxation/VTK/defaultFaces/defaultFaces_0.vtk"
Time: 400
    volScalarFields            : p nut k epsilon
    volVectorFields            : U

    Internal  : "/media/suraj/My4TBHD1/git_workspace/ANL/RLLib_Theta/openfoam/multiple_velocity_dynamic_relaxation/VTK/multiple_velocity_dynamic_relaxation_400.vtk"
    Patch     : "/media/suraj/My4TBHD1/git_workspace/ANL/RLLib_Theta/openfoam/multiple_velocity_dynamic_relaxation/VTK/outlet/outlet_400.vtk"
    Patch     : "/media/suraj/My4TBHD1/git_workspace/ANL/RLLib_Theta/openfoam/multiple_velocity_dynamic_relaxation/VTK/inlet/inlet_400.vtk"
    Patch     : "/media/suraj/My4TBHD1/git_workspace/ANL/RLLib_Theta/openfoam/multiple_velocity_dynamic_relaxation/VTK/lowerWall/lowerWall_400.vtk"
    Patch     : "/media/suraj/My4TBHD1/git_workspace/ANL/RLLib_Theta/openfoam/multiple_velocity_dynamic_relaxation/VTK/upperWall/upperWall_400.vtk"
    Patch     : "/media/suraj/My4TBHD1/git_workspace/ANL/RLLib_Theta/openfoam/multiple_velocity_dynamic_relaxation/VTK/defaultFaces/defaultFaces_400.vtk"
    surfScalarFields  : phi
End

/*---------------------------------------------------------------------------*\
| =========                 |                                                 |
| \\      /  F ield         | OpenFOAM: The Open Source CFD Toolbox           |
|  \\    /   O peration     | Version:  5.x                                   |
|   \\  /    A nd           | Web:      www.OpenFOAM.org                      |
|    \\/     M anipulation  |                                                 |
\*---------------------------------------------------------------------------*/
Build  : 5.x-7f7d351b741b
Exec   : foamToVTK
Date   : Jun 21 2020
Time   : 16:08:46
Host   : "suraj-MS-7B06"
PID    : 10026
I/O    : uncollated
Case   : /media/suraj/My4TBHD1/git_workspace/ANL/RLLib_Theta/openfoam/multiple_velocity_dynamic_relaxation
nProcs : 1
sigFpe : Enabling floating point exception trapping (FOAM_SIGFPE).
fileModificationChecking : Monitoring run-time modified files using timeStampMaster (fileModificationSkew 10)
allowSystemOperations : Allowing user-supplied system call operations

// * * * * * * * * * * * * * * * * * * * * * * * * * * * * * * * * * * * * * //
Create time

--> FOAM Warning : 
    From function int main(int, char**)
    in file foamToVTK.C at line 336
    Using ASCII rather than binary VTK format because floatScalar and/or label are not 4 bytes in size.

Create mesh for time = 0

Deleting old VTK files in "/media/suraj/My4TBHD1/git_workspace/ANL/RLLib_Theta/openfoam/multiple_velocity_dynamic_relaxation/VTK"

Time: 0
    volScalarFields            : v2 nut p k epsilon omega f
    volVectorFields            : U

    Internal  : "/media/suraj/My4TBHD1/git_workspace/ANL/RLLib_Theta/openfoam/multiple_velocity_dynamic_relaxation/VTK/multiple_velocity_dynamic_relaxation_0.vtk"
    Original cells:15000 points:30562   Additional cells:0  additional points:0

    Patch     : "/media/suraj/My4TBHD1/git_workspace/ANL/RLLib_Theta/openfoam/multiple_velocity_dynamic_relaxation/VTK/outlet/outlet_0.vtk"
    Patch     : "/media/suraj/My4TBHD1/git_workspace/ANL/RLLib_Theta/openfoam/multiple_velocity_dynamic_relaxation/VTK/inlet/inlet_0.vtk"
    Patch     : "/media/suraj/My4TBHD1/git_workspace/ANL/RLLib_Theta/openfoam/multiple_velocity_dynamic_relaxation/VTK/lowerWall/lowerWall_0.vtk"
    Patch     : "/media/suraj/My4TBHD1/git_workspace/ANL/RLLib_Theta/openfoam/multiple_velocity_dynamic_relaxation/VTK/upperWall/upperWall_0.vtk"
    Patch     : "/media/suraj/My4TBHD1/git_workspace/ANL/RLLib_Theta/openfoam/multiple_velocity_dynamic_relaxation/VTK/defaultFaces/defaultFaces_0.vtk"
Time: 500
    volScalarFields            : p nut k epsilon
    volVectorFields            : U

    Internal  : "/media/suraj/My4TBHD1/git_workspace/ANL/RLLib_Theta/openfoam/multiple_velocity_dynamic_relaxation/VTK/multiple_velocity_dynamic_relaxation_500.vtk"
    Patch     : "/media/suraj/My4TBHD1/git_workspace/ANL/RLLib_Theta/openfoam/multiple_velocity_dynamic_relaxation/VTK/outlet/outlet_500.vtk"
    Patch     : "/media/suraj/My4TBHD1/git_workspace/ANL/RLLib_Theta/openfoam/multiple_velocity_dynamic_relaxation/VTK/inlet/inlet_500.vtk"
    Patch     : "/media/suraj/My4TBHD1/git_workspace/ANL/RLLib_Theta/openfoam/multiple_velocity_dynamic_relaxation/VTK/lowerWall/lowerWall_500.vtk"
    Patch     : "/media/suraj/My4TBHD1/git_workspace/ANL/RLLib_Theta/openfoam/multiple_velocity_dynamic_relaxation/VTK/upperWall/upperWall_500.vtk"
    Patch     : "/media/suraj/My4TBHD1/git_workspace/ANL/RLLib_Theta/openfoam/multiple_velocity_dynamic_relaxation/VTK/defaultFaces/defaultFaces_500.vtk"
    surfScalarFields  : phi
End

/*---------------------------------------------------------------------------*\
| =========                 |                                                 |
| \\      /  F ield         | OpenFOAM: The Open Source CFD Toolbox           |
|  \\    /   O peration     | Version:  5.x                                   |
|   \\  /    A nd           | Web:      www.OpenFOAM.org                      |
|    \\/     M anipulation  |                                                 |
\*---------------------------------------------------------------------------*/
Build  : 5.x-7f7d351b741b
Exec   : foamToVTK
Date   : Jun 21 2020
Time   : 16:08:51
Host   : "suraj-MS-7B06"
PID    : 10036
I/O    : uncollated
Case   : /media/suraj/My4TBHD1/git_workspace/ANL/RLLib_Theta/openfoam/multiple_velocity_dynamic_relaxation
nProcs : 1
sigFpe : Enabling floating point exception trapping (FOAM_SIGFPE).
fileModificationChecking : Monitoring run-time modified files using timeStampMaster (fileModificationSkew 10)
allowSystemOperations : Allowing user-supplied system call operations

// * * * * * * * * * * * * * * * * * * * * * * * * * * * * * * * * * * * * * //
Create time

--> FOAM Warning : 
    From function int main(int, char**)
    in file foamToVTK.C at line 336
    Using ASCII rather than binary VTK format because floatScalar and/or label are not 4 bytes in size.

Create mesh for time = 0

Deleting old VTK files in "/media/suraj/My4TBHD1/git_workspace/ANL/RLLib_Theta/openfoam/multiple_velocity_dynamic_relaxation/VTK"

Time: 0
    volScalarFields            : v2 nut p k epsilon omega f
    volVectorFields            : U

    Internal  : "/media/suraj/My4TBHD1/git_workspace/ANL/RLLib_Theta/openfoam/multiple_velocity_dynamic_relaxation/VTK/multiple_velocity_dynamic_relaxation_0.vtk"
    Original cells:15000 points:30562   Additional cells:0  additional points:0

    Patch     : "/media/suraj/My4TBHD1/git_workspace/ANL/RLLib_Theta/openfoam/multiple_velocity_dynamic_relaxation/VTK/outlet/outlet_0.vtk"
    Patch     : "/media/suraj/My4TBHD1/git_workspace/ANL/RLLib_Theta/openfoam/multiple_velocity_dynamic_relaxation/VTK/inlet/inlet_0.vtk"
    Patch     : "/media/suraj/My4TBHD1/git_workspace/ANL/RLLib_Theta/openfoam/multiple_velocity_dynamic_relaxation/VTK/lowerWall/lowerWall_0.vtk"
    Patch     : "/media/suraj/My4TBHD1/git_workspace/ANL/RLLib_Theta/openfoam/multiple_velocity_dynamic_relaxation/VTK/upperWall/upperWall_0.vtk"
    Patch     : "/media/suraj/My4TBHD1/git_workspace/ANL/RLLib_Theta/openfoam/multiple_velocity_dynamic_relaxation/VTK/defaultFaces/defaultFaces_0.vtk"
Time: 600
    volScalarFields            : p nut k epsilon
    volVectorFields            : U

    Internal  : "/media/suraj/My4TBHD1/git_workspace/ANL/RLLib_Theta/openfoam/multiple_velocity_dynamic_relaxation/VTK/multiple_velocity_dynamic_relaxation_600.vtk"
    Patch     : "/media/suraj/My4TBHD1/git_workspace/ANL/RLLib_Theta/openfoam/multiple_velocity_dynamic_relaxation/VTK/outlet/outlet_600.vtk"
    Patch     : "/media/suraj/My4TBHD1/git_workspace/ANL/RLLib_Theta/openfoam/multiple_velocity_dynamic_relaxation/VTK/inlet/inlet_600.vtk"
    Patch     : "/media/suraj/My4TBHD1/git_workspace/ANL/RLLib_Theta/openfoam/multiple_velocity_dynamic_relaxation/VTK/lowerWall/lowerWall_600.vtk"
    Patch     : "/media/suraj/My4TBHD1/git_workspace/ANL/RLLib_Theta/openfoam/multiple_velocity_dynamic_relaxation/VTK/upperWall/upperWall_600.vtk"
    Patch     : "/media/suraj/My4TBHD1/git_workspace/ANL/RLLib_Theta/openfoam/multiple_velocity_dynamic_relaxation/VTK/defaultFaces/defaultFaces_600.vtk"
    surfScalarFields  : phi
End

