/*---------------------------------------------------------------------------*\
| =========                 |                                                 |
| \\      /  F ield         | OpenFOAM: The Open Source CFD Toolbox           |
|  \\    /   O peration     | Version:  5.x                                   |
|   \\  /    A nd           | Web:      www.OpenFOAM.org                      |
|    \\/     M anipulation  |                                                 |
\*---------------------------------------------------------------------------*/
Build  : 5.x-7f7d351b741b
Exec   : simpleFoam
Date   : Jun 20 2020
Time   : 20:39:42
Host   : "suraj-MS-7B06"
PID    : 30246
I/O    : uncollated
Case   : /media/suraj/My4TBHD1/git_workspace/ANL/RLLib_Theta/openfoam/multiple_velocity_single_relaxation
nProcs : 1
sigFpe : Enabling floating point exception trapping (FOAM_SIGFPE).
fileModificationChecking : Monitoring run-time modified files using timeStampMaster (fileModificationSkew 10)
allowSystemOperations : Allowing user-supplied system call operations

// * * * * * * * * * * * * * * * * * * * * * * * * * * * * * * * * * * * * * //
Create time

Create mesh for time = 0


SIMPLE: convergence criteria
    field p	 tolerance 0.005
    field U	 tolerance 0.0001
    field "(k|epsilon|omega|f|v2)"	 tolerance 0.0001

Reading field p

Reading field U

Reading/calculating face flux field phi

Selecting incompressible transport model Newtonian
Selecting turbulence model type RAS
Selecting RAS turbulence model kEpsilon
RAS
{
    RASModel        kEpsilon;
    turbulence      on;
    printCoeffs     on;
    Cmu             0.09;
    C1              1.44;
    C2              1.92;
    C3              0;
    sigmak          1;
    sigmaEps        1.3;
}

No MRF models present

No finite volume options present


Starting time loop

streamLine streamlines:
    automatic track length specified through number of sub cycles : 5

Time = 1

smoothSolver:  Solving for Ux, Initial residual = 1, Final residual = 4.21766e-07, No Iterations 4
smoothSolver:  Solving for Uy, Initial residual = 1, Final residual = 2.93911e-07, No Iterations 4
GAMG:  Solving for p, Initial residual = 1, Final residual = 8.89404e-07, No Iterations 29
time step continuity errors : sum local = 1.2783e-05, global = 4.99757e-06, cumulative = 4.99757e-06
smoothSolver:  Solving for epsilon, Initial residual = 0.046913, Final residual = 7.16421e-07, No Iterations 7
smoothSolver:  Solving for k, Initial residual = 1, Final residual = 7.41439e-07, No Iterations 10
ExecutionTime = 0.25 s  ClockTime = 0 s

Time = 2

smoothSolver:  Solving for Ux, Initial residual = 0.473637, Final residual = 2.03752e-07, No Iterations 5
smoothSolver:  Solving for Uy, Initial residual = 0.269419, Final residual = 2.24619e-07, No Iterations 5
GAMG:  Solving for p, Initial residual = 0.0167031, Final residual = 8.86422e-07, No Iterations 31
time step continuity errors : sum local = 0.000722626, global = 0.000343182, cumulative = 0.000348179
smoothSolver:  Solving for epsilon, Initial residual = 0.0719864, Final residual = 8.54179e-07, No Iterations 8
smoothSolver:  Solving for k, Initial residual = 0.315548, Final residual = 6.35381e-07, No Iterations 10
ExecutionTime = 0.29 s  ClockTime = 0 s

Time = 3

smoothSolver:  Solving for Ux, Initial residual = 0.617459, Final residual = 2.17469e-07, No Iterations 5
smoothSolver:  Solving for Uy, Initial residual = 0.168925, Final residual = 1.37389e-07, No Iterations 5
GAMG:  Solving for p, Initial residual = 0.00597645, Final residual = 7.6499e-07, No Iterations 26
time step continuity errors : sum local = 0.00124093, global = 0.000286862, cumulative = 0.000635041
smoothSolver:  Solving for epsilon, Initial residual = 0.10432, Final residual = 4.67056e-07, No Iterations 9
smoothSolver:  Solving for k, Initial residual = 0.323595, Final residual = 9.34679e-07, No Iterations 10
ExecutionTime = 0.34 s  ClockTime = 0 s

Time = 4

smoothSolver:  Solving for Ux, Initial residual = 0.37722, Final residual = 1.41364e-07, No Iterations 5
smoothSolver:  Solving for Uy, Initial residual = 0.0775334, Final residual = 6.51487e-08, No Iterations 5
GAMG:  Solving for p, Initial residual = 0.0103006, Final residual = 9.05811e-07, No Iterations 28
time step continuity errors : sum local = 0.000913209, global = 0.000202493, cumulative = 0.000837534
smoothSolver:  Solving for epsilon, Initial residual = 0.0962078, Final residual = 5.73343e-07, No Iterations 9
smoothSolver:  Solving for k, Initial residual = 0.198518, Final residual = 8.02975e-07, No Iterations 10
ExecutionTime = 0.39 s  ClockTime = 0 s

Time = 5

smoothSolver:  Solving for Ux, Initial residual = 0.018035, Final residual = 1.12587e-07, No Iterations 4
smoothSolver:  Solving for Uy, Initial residual = 0.0302782, Final residual = 3.51998e-07, No Iterations 4
GAMG:  Solving for p, Initial residual = 0.198344, Final residual = 7.01449e-07, No Iterations 36
time step continuity errors : sum local = 2.78213e-05, global = 8.5285e-06, cumulative = 0.000846063
smoothSolver:  Solving for epsilon, Initial residual = 0.0642731, Final residual = 3.64224e-07, No Iterations 9
smoothSolver:  Solving for k, Initial residual = 0.128189, Final residual = 3.79533e-07, No Iterations 10
ExecutionTime = 0.44 s  ClockTime = 0 s

Time = 6

smoothSolver:  Solving for Ux, Initial residual = 0.262264, Final residual = 1.10414e-07, No Iterations 5
smoothSolver:  Solving for Uy, Initial residual = 0.0798147, Final residual = 9.60847e-07, No Iterations 4
GAMG:  Solving for p, Initial residual = 0.0124976, Final residual = 7.83185e-07, No Iterations 16
time step continuity errors : sum local = 0.000490964, global = -9.89363e-05, cumulative = 0.000747126
smoothSolver:  Solving for epsilon, Initial residual = 0.0977671, Final residual = 7.98472e-07, No Iterations 8
bounding epsilon, min: -73.3755 max: 32327.5 average: 26.6798
smoothSolver:  Solving for k, Initial residual = 0.215664, Final residual = 6.0257e-07, No Iterations 12
bounding k, min: -0.100958 max: 12.1482 average: 0.308473
ExecutionTime = 0.49 s  ClockTime = 0 s

Time = 7

smoothSolver:  Solving for Ux, Initial residual = 0.30903, Final residual = 1.14818e-07, No Iterations 5
smoothSolver:  Solving for Uy, Initial residual = 0.0734894, Final residual = 7.96959e-07, No Iterations 4
GAMG:  Solving for p, Initial residual = 0.0313106, Final residual = 9.20259e-07, No Iterations 25
time step continuity errors : sum local = 0.000534468, global = 0.00021985, cumulative = 0.000966977
smoothSolver:  Solving for epsilon, Initial residual = 0.0576537, Final residual = 3.08025e-07, No Iterations 8
bounding epsilon, min: -123.6 max: 23396.2 average: 29.2374
smoothSolver:  Solving for k, Initial residual = 0.121614, Final residual = 3.72338e-07, No Iterations 9
bounding k, min: -0.0725015 max: 39.3748 average: 0.327267
ExecutionTime = 0.53 s  ClockTime = 0 s

Time = 8

smoothSolver:  Solving for Ux, Initial residual = 0.0960867, Final residual = 6.02945e-07, No Iterations 4
smoothSolver:  Solving for Uy, Initial residual = 0.055905, Final residual = 1.71108e-07, No Iterations 5
GAMG:  Solving for p, Initial residual = 0.0462274, Final residual = 8.64579e-07, No Iterations 28
time step continuity errors : sum local = 0.000140554, global = -3.52018e-05, cumulative = 0.000931775
smoothSolver:  Solving for epsilon, Initial residual = 0.185753, Final residual = 6.189e-07, No Iterations 7
bounding epsilon, min: -11.5842 max: 53416.5 average: 45.9903
smoothSolver:  Solving for k, Initial residual = 0.17732, Final residual = 8.62827e-07, No Iterations 12
bounding k, min: -0.101439 max: 61.7463 average: 0.348859
ExecutionTime = 0.58 s  ClockTime = 0 s

Time = 9

smoothSolver:  Solving for Ux, Initial residual = 0.105402, Final residual = 6.84752e-07, No Iterations 4
smoothSolver:  Solving for Uy, Initial residual = 0.0433055, Final residual = 4.23662e-07, No Iterations 4
GAMG:  Solving for p, Initial residual = 0.0405869, Final residual = 9.38588e-07, No Iterations 23
time step continuity errors : sum local = 0.000192244, global = 7.95151e-05, cumulative = 0.00101129
smoothSolver:  Solving for epsilon, Initial residual = 0.0811764, Final residual = 4.49052e-07, No Iterations 7
bounding epsilon, min: -42.6551 max: 401641 average: 108.664
smoothSolver:  Solving for k, Initial residual = 0.116971, Final residual = 8.95205e-07, No Iterations 8
ExecutionTime = 0.62 s  ClockTime = 0 s

Time = 10

smoothSolver:  Solving for Ux, Initial residual = 0.138541, Final residual = 8.86243e-07, No Iterations 4
smoothSolver:  Solving for Uy, Initial residual = 0.0342574, Final residual = 3.39848e-07, No Iterations 4
GAMG:  Solving for p, Initial residual = 0.0506903, Final residual = 9.20921e-07, No Iterations 23
time step continuity errors : sum local = 0.000265683, global = -9.83367e-05, cumulative = 0.000912953
smoothSolver:  Solving for epsilon, Initial residual = 0.0984478, Final residual = 5.27562e-07, No Iterations 6
bounding epsilon, min: -7.4535 max: 206102 average: 129.895
smoothSolver:  Solving for k, Initial residual = 0.0831383, Final residual = 9.09074e-07, No Iterations 8
ExecutionTime = 0.67 s  ClockTime = 0 s

Time = 11

smoothSolver:  Solving for Ux, Initial residual = 0.0709152, Final residual = 4.56771e-07, No Iterations 4
smoothSolver:  Solving for Uy, Initial residual = 0.0155957, Final residual = 1.5221e-07, No Iterations 4
GAMG:  Solving for p, Initial residual = 0.078982, Final residual = 7.4806e-07, No Iterations 26
time step continuity errors : sum local = 0.000114468, global = 4.16938e-05, cumulative = 0.000954647
smoothSolver:  Solving for epsilon, Initial residual = 0.0815366, Final residual = 3.87223e-07, No Iterations 6
bounding epsilon, min: -119.702 max: 275178 average: 141.012
smoothSolver:  Solving for k, Initial residual = 0.0652661, Final residual = 8.13067e-07, No Iterations 8
bounding k, min: -0.0278586 max: 60.3392 average: 0.38032
ExecutionTime = 0.71 s  ClockTime = 0 s

Time = 12

smoothSolver:  Solving for Ux, Initial residual = 0.0167902, Final residual = 9.44304e-08, No Iterations 4
smoothSolver:  Solving for Uy, Initial residual = 0.0131386, Final residual = 1.13446e-07, No Iterations 4
GAMG:  Solving for p, Initial residual = 0.177947, Final residual = 8.42507e-07, No Iterations 26
time step continuity errors : sum local = 3.82065e-05, global = 1.44729e-05, cumulative = 0.00096912
smoothSolver:  Solving for epsilon, Initial residual = 0.0720413, Final residual = 3.16303e-07, No Iterations 6
bounding epsilon, min: -516.991 max: 248402 average: 126.937
smoothSolver:  Solving for k, Initial residual = 0.0616058, Final residual = 7.10773e-07, No Iterations 8
bounding k, min: -0.386906 max: 54.5058 average: 0.384297
ExecutionTime = 0.75 s  ClockTime = 1 s

Time = 13

smoothSolver:  Solving for Ux, Initial residual = 0.0582023, Final residual = 3.5439e-07, No Iterations 4
smoothSolver:  Solving for Uy, Initial residual = 0.0198918, Final residual = 1.79997e-07, No Iterations 4
GAMG:  Solving for p, Initial residual = 0.0417056, Final residual = 8.11123e-07, No Iterations 22
time step continuity errors : sum local = 9.96795e-05, global = -3.91218e-05, cumulative = 0.000929998
smoothSolver:  Solving for epsilon, Initial residual = 0.113377, Final residual = 3.45967e-07, No Iterations 6
bounding epsilon, min: -824.632 max: 149426 average: 101.799
smoothSolver:  Solving for k, Initial residual = 0.0648793, Final residual = 6.43629e-07, No Iterations 8
bounding k, min: -0.930921 max: 33.7908 average: 0.384431
ExecutionTime = 0.79 s  ClockTime = 1 s

Time = 14

smoothSolver:  Solving for Ux, Initial residual = 0.0457437, Final residual = 2.73457e-07, No Iterations 4
smoothSolver:  Solving for Uy, Initial residual = 0.0164442, Final residual = 1.45153e-07, No Iterations 4
GAMG:  Solving for p, Initial residual = 0.0490116, Final residual = 8.86721e-07, No Iterations 23
time step continuity errors : sum local = 8.25316e-05, global = 3.26499e-05, cumulative = 0.000962648
smoothSolver:  Solving for epsilon, Initial residual = 0.13909, Final residual = 4.40754e-07, No Iterations 6
bounding epsilon, min: -693.388 max: 77168.5 average: 80.4767
smoothSolver:  Solving for k, Initial residual = 0.0559112, Final residual = 6.13089e-07, No Iterations 8
bounding k, min: -3.36257 max: 21.3107 average: 0.384902
ExecutionTime = 0.84 s  ClockTime = 1 s

Time = 15

smoothSolver:  Solving for Ux, Initial residual = 0.00737174, Final residual = 6.88784e-07, No Iterations 3
smoothSolver:  Solving for Uy, Initial residual = 0.00999606, Final residual = 8.09947e-08, No Iterations 4
GAMG:  Solving for p, Initial residual = 0.232071, Final residual = 6.93405e-07, No Iterations 28
time step continuity errors : sum local = 1.2541e-05, global = -3.71522e-06, cumulative = 0.000958933
smoothSolver:  Solving for epsilon, Initial residual = 0.0964746, Final residual = 6.37792e-07, No Iterations 6
bounding epsilon, min: -4216.74 max: 47473.8 average: 64.0589
smoothSolver:  Solving for k, Initial residual = 0.0475303, Final residual = 6.0868e-07, No Iterations 8
bounding k, min: -1.369 max: 12.4998 average: 0.386123
ExecutionTime = 0.89 s  ClockTime = 1 s

Time = 16

smoothSolver:  Solving for Ux, Initial residual = 0.0185493, Final residual = 6.13316e-07, No Iterations 4
smoothSolver:  Solving for Uy, Initial residual = 0.109044, Final residual = 1.63694e-07, No Iterations 5
GAMG:  Solving for p, Initial residual = 0.0730718, Final residual = 8.07479e-07, No Iterations 17
time step continuity errors : sum local = 3.75909e-05, global = -4.51945e-06, cumulative = 0.000954413
smoothSolver:  Solving for epsilon, Initial residual = 0.167549, Final residual = 5.28864e-07, No Iterations 11
bounding epsilon, min: -901.014 max: 26161.4 average: 54.162
smoothSolver:  Solving for k, Initial residual = 0.184375, Final residual = 9.25738e-07, No Iterations 11
bounding k, min: -0.280412 max: 8.63489 average: 0.387792
ExecutionTime = 0.93 s  ClockTime = 1 s

Time = 17

smoothSolver:  Solving for Ux, Initial residual = 1, Final residual = 1.06877e-07, No Iterations 5
smoothSolver:  Solving for Uy, Initial residual = 1, Final residual = 6.24471e-08, No Iterations 5
GAMG:  Solving for p, Initial residual = 0.920252, Final residual = 8.0523e-07, No Iterations 16
time step continuity errors : sum local = 590865, global = 25571.1, cumulative = 25571.1
smoothSolver:  Solving for epsilon, Initial residual = 1, Final residual = 1.81089e-07, No Iterations 7
smoothSolver:  Solving for k, Initial residual = 1, Final residual = 1.10608e-09, No Iterations 2
ExecutionTime = 0.96 s  ClockTime = 1 s

Time = 18

smoothSolver:  Solving for Ux, Initial residual = 0.165755, Final residual = 2.43691e-07, No Iterations 6
smoothSolver:  Solving for Uy, Initial residual = 0.427444, Final residual = 6.98312e-07, No Iterations 6
GAMG:  Solving for p, Initial residual = 0.999998, Final residual = 9.94033e-07, No Iterations 28
time step continuity errors : sum local = 149433, global = -20099.5, cumulative = 5471.57
smoothSolver:  Solving for epsilon, Initial residual = 1, Final residual = 7.15978e-08, No Iterations 7
smoothSolver:  Solving for k, Initial residual = 1, Final residual = 1.561e-09, No Iterations 3
ExecutionTime = 1.01 s  ClockTime = 1 s

Time = 19

smoothSolver:  Solving for Ux, Initial residual = 0.373349, Final residual = 8.87067e-07, No Iterations 5
smoothSolver:  Solving for Uy, Initial residual = 0.269456, Final residual = 7.69705e-07, No Iterations 5
GAMG:  Solving for p, Initial residual = 0.868754, Final residual = 9.68575e-07, No Iterations 20
time step continuity errors : sum local = 7.22043e+06, global = -5.8812e+06, cumulative = -5.87573e+06
smoothSolver:  Solving for epsilon, Initial residual = 0.902848, Final residual = 7.42101e-07, No Iterations 15
smoothSolver:  Solving for k, Initial residual = 0.77427, Final residual = 6.41469e-07, No Iterations 15
bounding k, min: -1.39937e+11 max: 4.26913e+22 average: 3.44192e+19
ExecutionTime = 1.05 s  ClockTime = 1 s

Time = 20

smoothSolver:  Solving for Ux, Initial residual = 0.346652, Final residual = 1.68684e-07, No Iterations 7
smoothSolver:  Solving for Uy, Initial residual = 0.0352123, Final residual = 7.0911e-07, No Iterations 5
GAMG:  Solving for p, Initial residual = 1.76784e-07, Final residual = 1.76784e-07, No Iterations 0
time step continuity errors : sum local = 8.12022e+12, global = -2.08241e+06, cumulative = -7.95813e+06
smoothSolver:  Solving for epsilon, Initial residual = 1.05792e-05, Final residual = 6.66139e-13, No Iterations 1
smoothSolver:  Solving for k, Initial residual = 9.23413e-10, Final residual = 9.23413e-10, No Iterations 0
ExecutionTime = 1.07 s  ClockTime = 1 s

Time = 21

smoothSolver:  Solving for Ux, Initial residual = 0.152178, Final residual = 2.83409e-07, No Iterations 6
smoothSolver:  Solving for Uy, Initial residual = 0.153774, Final residual = 2.46429e-07, No Iterations 6
GAMG:  Solving for p, Initial residual = 0.012934, Final residual = 8.66611e-07, No Iterations 54
time step continuity errors : sum local = 2.20123e+14, global = 1.86448e+13, cumulative = 1.86448e+13
smoothSolver:  Solving for epsilon, Initial residual = 5.59738e-05, Final residual = 2.48347e-07, No Iterations 2
bounding epsilon, min: -2.76756e+24 max: 5.47331e+37 average: 5.14957e+33
smoothSolver:  Solving for k, Initial residual = 2.92739e-06, Final residual = 1.33576e-07, No Iterations 1
bounding k, min: -1.68446e+14 max: 4.35533e+27 average: 3.02659e+24
ExecutionTime = 1.14 s  ClockTime = 1 s

Time = 22

smoothSolver:  Solving for Ux, Initial residual = 0.15257, Final residual = 1.68837e-07, No Iterations 5
smoothSolver:  Solving for Uy, Initial residual = 0.203129, Final residual = 4.60181e-07, No Iterations 5
GAMG:  Solving for p, Initial residual = 0.999933, Final residual = 0.364985, No Iterations 1000
time step continuity errors : sum local = 1.16107e+18, global = -2.00817e+16, cumulative = -2.00631e+16
smoothSolver:  Solving for epsilon, Initial residual = 0.0584013, Final residual = 5.57931e-07, No Iterations 6
smoothSolver:  Solving for k, Initial residual = 0.80244, Final residual = 4.96484e-07, No Iterations 12
ExecutionTime = 2.03 s  ClockTime = 2 s

Time = 23

smoothSolver:  Solving for Ux, Initial residual = 0.194811, Final residual = 1.3091e-07, No Iterations 5
smoothSolver:  Solving for Uy, Initial residual = 0.274906, Final residual = 1.0987e-07, No Iterations 5
GAMG:  Solving for p, Initial residual = 0.89437, Final residual = 4.7475e-06, No Iterations 1000
time step continuity errors : sum local = 1.83979e+23, global = -5.7679e+22, cumulative = -5.7679e+22
smoothSolver:  Solving for epsilon, Initial residual = 0.0310804, Final residual = 6.24188e-17, No Iterations 1
smoothSolver:  Solving for k, Initial residual = 0.176006, Final residual = 3.84944e-07, No Iterations 10
bounding k, min: -1.6412e+12 max: 2.76267e+44 average: 1.89893e+41
ExecutionTime = 2.94 s  ClockTime = 3 s

Time = 24

smoothSolver:  Solving for Ux, Initial residual = 0.401689, Final residual = 4.3026e-07, No Iterations 6
smoothSolver:  Solving for Uy, Initial residual = 0.258811, Final residual = 3.30497e-07, No Iterations 6
GAMG:  Solving for p, Initial residual = 0.896136, Final residual = 2.17658e-07, No Iterations 9
time step continuity errors : sum local = 1.16818e+39, global = 5.35523e+31, cumulative = 5.35523e+31
smoothSolver:  Solving for epsilon, Initial residual = 1, Final residual = 7.27328e-07, No Iterations 5
bounding epsilon, min: -8.09914e+43 max: 4.72885e+81 average: 2.9413e+78
smoothSolver:  Solving for k, Initial residual = 1, Final residual = 1.57085e-09, No Iterations 3
bounding k, min: -6.44744e+13 max: 4.00119e+62 average: 1.31559e+59
ExecutionTime = 2.97 s  ClockTime = 3 s

Time = 25

smoothSolver:  Solving for Ux, Initial residual = 0.262083, Final residual = 4.79466e-07, No Iterations 5
smoothSolver:  Solving for Uy, Initial residual = 0.223374, Final residual = 3.2439e-07, No Iterations 5
