/*---------------------------------------------------------------------------*\
| =========                 |                                                 |
| \\      /  F ield         | OpenFOAM: The Open Source CFD Toolbox           |
|  \\    /   O peration     | Version:  5.x                                   |
|   \\  /    A nd           | Web:      www.OpenFOAM.org                      |
|    \\/     M anipulation  |                                                 |
\*---------------------------------------------------------------------------*/
Build  : 5.x-7f7d351b741b
Exec   : /home/suraj/OpenFOAM/OpenFOAM-5.x/platforms/linux64GccDPInt64Opt/bin/simpleFoam -case baseCase_1
Date   : Jul 23 2020
Time   : 18:57:11
Host   : "suraj-MS-7B06"
PID    : 19279
I/O    : uncollated
Case   : ./baseCase_1
nProcs : 1
sigFpe : Enabling floating point exception trapping (FOAM_SIGFPE).
fileModificationChecking : Monitoring run-time modified files using timeStampMaster (fileModificationSkew 10)
allowSystemOperations : Allowing user-supplied system call operations

// * * * * * * * * * * * * * * * * * * * * * * * * * * * * * * * * * * * * * //
Create time

Create mesh for time = 0


SIMPLE: convergence criteria
    field p	 tolerance 1e-05
    field U	 tolerance 1e-05
    field nuTilda	 tolerance 1e-05

Reading field p

Reading field U

Reading/calculating face flux field phi

Selecting incompressible transport model Newtonian
Selecting turbulence model type RAS
Selecting RAS turbulence model SpalartAllmaras
Selecting patchDistMethod meshWave
RAS
{
    RASModel        SpalartAllmaras;
    turbulence      on;
    printCoeffs     on;
    sigmaNut        0.66666;
    kappa           0.41;
    Cb1             0.1355;
    Cb2             0.622;
    Cw2             0.3;
    Cw3             2;
    Cv1             7.1;
    Cs              0.3;
}

No MRF models present

No finite volume options present


Starting time loop

Time = 1

smoothSolver:  Solving for Ux, Initial residual = 1, Final residual = 0.037867, No Iterations 2
smoothSolver:  Solving for Uy, Initial residual = 1, Final residual = 0.0689621, No Iterations 2
GAMG:  Solving for p, Initial residual = 1, Final residual = 0.0640324, No Iterations 8
time step continuity errors : sum local = 0.000974916, global = 2.99429e-16, cumulative = 2.99429e-16
smoothSolver:  Solving for nuTilda, Initial residual = 1, Final residual = 0.0172277, No Iterations 2
ExecutionTime = 0.07 s  ClockTime = 0 s

Time = 2

smoothSolver:  Solving for Ux, Initial residual = 0.536231, Final residual = 0.0532496, No Iterations 2
smoothSolver:  Solving for Uy, Initial residual = 0.442594, Final residual = 0.0123682, No Iterations 4
GAMG:  Solving for p, Initial residual = 0.831136, Final residual = 0.0618487, No Iterations 3
time step continuity errors : sum local = 0.00295476, global = -1.83052e-16, cumulative = 1.16377e-16
smoothSolver:  Solving for nuTilda, Initial residual = 0.105375, Final residual = 0.00525095, No Iterations 2
ExecutionTime = 0.08 s  ClockTime = 0 s

Time = 3

smoothSolver:  Solving for Ux, Initial residual = 0.193728, Final residual = 0.0152884, No Iterations 2
smoothSolver:  Solving for Uy, Initial residual = 0.101164, Final residual = 0.00201344, No Iterations 4
GAMG:  Solving for p, Initial residual = 0.833866, Final residual = 0.0621545, No Iterations 5
time step continuity errors : sum local = 0.0043505, global = 7.52035e-17, cumulative = 1.9158e-16
smoothSolver:  Solving for nuTilda, Initial residual = 0.0317301, Final residual = 0.00296762, No Iterations 2
ExecutionTime = 0.1 s  ClockTime = 0 s

Time = 4

smoothSolver:  Solving for Ux, Initial residual = 0.0571836, Final residual = 0.0047347, No Iterations 2
smoothSolver:  Solving for Uy, Initial residual = 0.0321822, Final residual = 0.000611944, No Iterations 4
GAMG:  Solving for p, Initial residual = 0.834496, Final residual = 0.0783715, No Iterations 4
time step continuity errors : sum local = 0.00475571, global = -2.03688e-16, cumulative = -1.21079e-17
smoothSolver:  Solving for nuTilda, Initial residual = 0.0171497, Final residual = 0.000287177, No Iterations 4
ExecutionTime = 0.11 s  ClockTime = 0 s

Time = 5

smoothSolver:  Solving for Ux, Initial residual = 0.109711, Final residual = 0.00898886, No Iterations 2
smoothSolver:  Solving for Uy, Initial residual = 0.0646528, Final residual = 0.0011725, No Iterations 4
GAMG:  Solving for p, Initial residual = 0.82398, Final residual = 0.0546362, No Iterations 3
time step continuity errors : sum local = 0.00342019, global = 8.25749e-16, cumulative = 8.13641e-16
smoothSolver:  Solving for nuTilda, Initial residual = 0.0119342, Final residual = 0.000204102, No Iterations 4
ExecutionTime = 0.12 s  ClockTime = 0 s

Time = 6

smoothSolver:  Solving for Ux, Initial residual = 0.152707, Final residual = 0.0104384, No Iterations 2
smoothSolver:  Solving for Uy, Initial residual = 0.101987, Final residual = 0.00969121, No Iterations 2
GAMG:  Solving for p, Initial residual = 0.751203, Final residual = 0.0459874, No Iterations 5
time step continuity errors : sum local = 0.00265501, global = 3.07261e-16, cumulative = 1.1209e-15
smoothSolver:  Solving for nuTilda, Initial residual = 0.00953197, Final residual = 0.000155875, No Iterations 4
ExecutionTime = 0.14 s  ClockTime = 0 s

Time = 7

smoothSolver:  Solving for Ux, Initial residual = 0.0876269, Final residual = 0.00621173, No Iterations 2
smoothSolver:  Solving for Uy, Initial residual = 0.0878532, Final residual = 0.00137264, No Iterations 4
GAMG:  Solving for p, Initial residual = 0.765789, Final residual = 0.0713352, No Iterations 4
time step continuity errors : sum local = 0.00365596, global = -5.20542e-16, cumulative = 6.0036e-16
smoothSolver:  Solving for nuTilda, Initial residual = 0.00784466, Final residual = 0.000122317, No Iterations 4
bounding nuTilda, min: -0.000225295 max: 0.140476 average: 0.129715
ExecutionTime = 0.15 s  ClockTime = 0 s

Time = 8

smoothSolver:  Solving for Ux, Initial residual = 0.0820741, Final residual = 0.00514293, No Iterations 2
smoothSolver:  Solving for Uy, Initial residual = 0.061315, Final residual = 0.00492681, No Iterations 2
GAMG:  Solving for p, Initial residual = 0.795082, Final residual = 0.0679671, No Iterations 3
time step continuity errors : sum local = 0.00327858, global = -3.76277e-16, cumulative = 2.24083e-16
smoothSolver:  Solving for nuTilda, Initial residual = 0.00661264, Final residual = 0.000101091, No Iterations 4
ExecutionTime = 0.17 s  ClockTime = 0 s

Time = 9

smoothSolver:  Solving for Ux, Initial residual = 0.0981928, Final residual = 0.00587688, No Iterations 2
smoothSolver:  Solving for Uy, Initial residual = 0.0514873, Final residual = 0.00413974, No Iterations 2
GAMG:  Solving for p, Initial residual = 0.775838, Final residual = 0.0527283, No Iterations 4
time step continuity errors : sum local = 0.00230906, global = 4.84358e-17, cumulative = 2.72518e-16
smoothSolver:  Solving for nuTilda, Initial residual = 0.00567606, Final residual = 8.53446e-05, No Iterations 4
ExecutionTime = 0.18 s  ClockTime = 0 s

Time = 10

smoothSolver:  Solving for Ux, Initial residual = 0.0645713, Final residual = 0.00397725, No Iterations 2
smoothSolver:  Solving for Uy, Initial residual = 0.0310446, Final residual = 0.00233604, No Iterations 2
GAMG:  Solving for p, Initial residual = 0.760575, Final residual = 0.0614556, No Iterations 4
time step continuity errors : sum local = 0.00254704, global = -3.24829e-16, cumulative = -5.23107e-17
smoothSolver:  Solving for nuTilda, Initial residual = 0.00506449, Final residual = 0.000505738, No Iterations 2
ExecutionTime = 0.19 s  ClockTime = 0 s

Time = 11

smoothSolver:  Solving for Ux, Initial residual = 0.0368702, Final residual = 0.00242779, No Iterations 2
smoothSolver:  Solving for Uy, Initial residual = 0.021808, Final residual = 0.00174794, No Iterations 2
GAMG:  Solving for p, Initial residual = 0.755701, Final residual = 0.0298589, No Iterations 4
time step continuity errors : sum local = 0.00119335, global = 3.02022e-16, cumulative = 2.49711e-16
smoothSolver:  Solving for nuTilda, Initial residual = 0.00471745, Final residual = 0.000464221, No Iterations 2
bounding nuTilda, min: -0.00123555 max: 0.140896 average: 0.127803
ExecutionTime = 0.21 s  ClockTime = 0 s

Time = 12

smoothSolver:  Solving for Ux, Initial residual = 0.0442594, Final residual = 0.00244618, No Iterations 2
smoothSolver:  Solving for Uy, Initial residual = 0.0268999, Final residual = 0.00246111, No Iterations 2
GAMG:  Solving for p, Initial residual = 0.703155, Final residual = 0.0587003, No Iterations 3
time step continuity errors : sum local = 0.00226061, global = -1.34259e-16, cumulative = 1.15452e-16
smoothSolver:  Solving for nuTilda, Initial residual = 0.00446619, Final residual = 0.000437064, No Iterations 2
bounding nuTilda, min: -0.00221373 max: 0.141004 average: 0.127447
ExecutionTime = 0.22 s  ClockTime = 0 s

Time = 13

smoothSolver:  Solving for Ux, Initial residual = 0.0375586, Final residual = 0.00190875, No Iterations 2
smoothSolver:  Solving for Uy, Initial residual = 0.0266103, Final residual = 0.00252243, No Iterations 2
GAMG:  Solving for p, Initial residual = 0.691757, Final residual = 0.067805, No Iterations 3
time step continuity errors : sum local = 0.00244451, global = -1.02765e-15, cumulative = -9.12198e-16
smoothSolver:  Solving for nuTilda, Initial residual = 0.00424599, Final residual = 0.00041513, No Iterations 2
bounding nuTilda, min: -0.00235186 max: 0.141099 average: 0.127112
ExecutionTime = 0.23 s  ClockTime = 0 s

Time = 14

smoothSolver:  Solving for Ux, Initial residual = 0.0294617, Final residual = 0.00172588, No Iterations 2
smoothSolver:  Solving for Uy, Initial residual = 0.0213183, Final residual = 0.00186749, No Iterations 2
GAMG:  Solving for p, Initial residual = 0.688051, Final residual = 0.0456717, No Iterations 4
time step continuity errors : sum local = 0.00154109, global = -4.09892e-16, cumulative = -1.32209e-15
smoothSolver:  Solving for nuTilda, Initial residual = 0.00402073, Final residual = 0.000394059, No Iterations 2
bounding nuTilda, min: -0.00161536 max: 0.14119 average: 0.126798
ExecutionTime = 0.25 s  ClockTime = 0 s

Time = 15

smoothSolver:  Solving for Ux, Initial residual = 0.036065, Final residual = 0.0019677, No Iterations 2
smoothSolver:  Solving for Uy, Initial residual = 0.02149, Final residual = 0.00126501, No Iterations 2
GAMG:  Solving for p, Initial residual = 0.677892, Final residual = 0.0567893, No Iterations 3
time step continuity errors : sum local = 0.00179442, global = -2.54002e-16, cumulative = -1.57609e-15
smoothSolver:  Solving for nuTilda, Initial residual = 0.00380042, Final residual = 0.000370249, No Iterations 2
bounding nuTilda, min: -0.00149182 max: 0.141297 average: 0.126506
ExecutionTime = 0.26 s  ClockTime = 0 s

Time = 16

smoothSolver:  Solving for Ux, Initial residual = 0.0335956, Final residual = 0.00173981, No Iterations 2
smoothSolver:  Solving for Uy, Initial residual = 0.0191061, Final residual = 0.00132418, No Iterations 2
GAMG:  Solving for p, Initial residual = 0.652459, Final residual = 0.0574924, No Iterations 3
time step continuity errors : sum local = 0.00175573, global = -1.39008e-16, cumulative = -1.7151e-15
smoothSolver:  Solving for nuTilda, Initial residual = 0.00360154, Final residual = 0.000349011, No Iterations 2
bounding nuTilda, min: -3.84645e-05 max: 0.141402 average: 0.126234
ExecutionTime = 0.27 s  ClockTime = 0 s

Time = 17

smoothSolver:  Solving for Ux, Initial residual = 0.026476, Final residual = 0.00146734, No Iterations 2
smoothSolver:  Solving for Uy, Initial residual = 0.0152682, Final residual = 0.00116851, No Iterations 2
GAMG:  Solving for p, Initial residual = 0.630164, Final residual = 0.0314209, No Iterations 4
time step continuity errors : sum local = 0.000911654, global = -1.74592e-16, cumulative = -1.88969e-15
smoothSolver:  Solving for nuTilda, Initial residual = 0.00344305, Final residual = 0.000333709, No Iterations 2
bounding nuTilda, min: -0.00175996 max: 0.141506 average: 0.125978
ExecutionTime = 0.28 s  ClockTime = 0 s

Time = 18

smoothSolver:  Solving for Ux, Initial residual = 0.0226576, Final residual = 0.00140321, No Iterations 2
smoothSolver:  Solving for Uy, Initial residual = 0.0144841, Final residual = 0.00116058, No Iterations 2
GAMG:  Solving for p, Initial residual = 0.61493, Final residual = 0.0382311, No Iterations 4
time step continuity errors : sum local = 0.00108929, global = 5.39848e-16, cumulative = -1.34984e-15
smoothSolver:  Solving for nuTilda, Initial residual = 0.00331157, Final residual = 0.00032293, No Iterations 2
bounding nuTilda, min: -0.00318635 max: 0.141612 average: 0.125737
ExecutionTime = 0.3 s  ClockTime = 0 s

Time = 19

smoothSolver:  Solving for Ux, Initial residual = 0.0236181, Final residual = 0.00135543, No Iterations 2
smoothSolver:  Solving for Uy, Initial residual = 0.015496, Final residual = 0.00135836, No Iterations 2
GAMG:  Solving for p, Initial residual = 0.592343, Final residual = 0.0442086, No Iterations 3
time step continuity errors : sum local = 0.00119602, global = -2.80811e-16, cumulative = -1.63065e-15
smoothSolver:  Solving for nuTilda, Initial residual = 0.00319591, Final residual = 0.000314854, No Iterations 2
bounding nuTilda, min: -0.00200393 max: 0.141726 average: 0.125509
ExecutionTime = 0.31 s  ClockTime = 0 s

Time = 20

smoothSolver:  Solving for Ux, Initial residual = 0.0205253, Final residual = 0.00117279, No Iterations 2
smoothSolver:  Solving for Uy, Initial residual = 0.0138521, Final residual = 0.00121666, No Iterations 2
GAMG:  Solving for p, Initial residual = 0.582857, Final residual = 0.0413235, No Iterations 4
time step continuity errors : sum local = 0.00103455, global = -5.41694e-16, cumulative = -2.17235e-15
smoothSolver:  Solving for nuTilda, Initial residual = 0.00310064, Final residual = 0.000307959, No Iterations 2
bounding nuTilda, min: -0.00101041 max: 0.141856 average: 0.125288
ExecutionTime = 0.32 s  ClockTime = 0 s

Time = 21

smoothSolver:  Solving for Ux, Initial residual = 0.0188561, Final residual = 0.00112235, No Iterations 2
smoothSolver:  Solving for Uy, Initial residual = 0.0119622, Final residual = 0.000880118, No Iterations 2
GAMG:  Solving for p, Initial residual = 0.585934, Final residual = 0.0386166, No Iterations 4
time step continuity errors : sum local = 0.000917025, global = -9.71808e-17, cumulative = -2.26953e-15
smoothSolver:  Solving for nuTilda, Initial residual = 0.00301139, Final residual = 4.87112e-05, No Iterations 4
bounding nuTilda, min: -0.000159343 max: 0.141991 average: 0.12505
ExecutionTime = 0.34 s  ClockTime = 0 s

Time = 22

smoothSolver:  Solving for Ux, Initial residual = 0.0187689, Final residual = 0.00111467, No Iterations 2
smoothSolver:  Solving for Uy, Initial residual = 0.0120566, Final residual = 0.000843807, No Iterations 2
GAMG:  Solving for p, Initial residual = 0.576071, Final residual = 0.0457975, No Iterations 3
time step continuity errors : sum local = 0.00104652, global = -6.50229e-16, cumulative = -2.91976e-15
smoothSolver:  Solving for nuTilda, Initial residual = 0.00290732, Final residual = 0.000290186, No Iterations 2
ExecutionTime = 0.34 s  ClockTime = 0 s

Time = 23

smoothSolver:  Solving for Ux, Initial residual = 0.0181464, Final residual = 0.00103767, No Iterations 2
smoothSolver:  Solving for Uy, Initial residual = 0.0116018, Final residual = 0.000901401, No Iterations 2
GAMG:  Solving for p, Initial residual = 0.551426, Final residual = 0.0447982, No Iterations 3
time step continuity errors : sum local = 0.00100616, global = -6.9533e-16, cumulative = -3.61509e-15
smoothSolver:  Solving for nuTilda, Initial residual = 0.0028312, Final residual = 4.51988e-05, No Iterations 4
bounding nuTilda, min: -0.000390781 max: 0.142246 average: 0.124615
ExecutionTime = 0.36 s  ClockTime = 0 s

Time = 24

smoothSolver:  Solving for Ux, Initial residual = 0.0174608, Final residual = 0.00102966, No Iterations 2
smoothSolver:  Solving for Uy, Initial residual = 0.0106367, Final residual = 0.000935335, No Iterations 2
GAMG:  Solving for p, Initial residual = 0.53234, Final residual = 0.0506772, No Iterations 3
time step continuity errors : sum local = 0.00113088, global = 3.2621e-16, cumulative = -3.28888e-15
smoothSolver:  Solving for nuTilda, Initial residual = 0.00273565, Final residual = 0.000273451, No Iterations 2
bounding nuTilda, min: -0.00158461 max: 0.142375 average: 0.124419
ExecutionTime = 0.37 s  ClockTime = 0 s

Time = 25

smoothSolver:  Solving for Ux, Initial residual = 0.0158424, Final residual = 0.00102483, No Iterations 2
smoothSolver:  Solving for Uy, Initial residual = 0.0102035, Final residual = 0.000911109, No Iterations 2
GAMG:  Solving for p, Initial residual = 0.514564, Final residual = 0.0457997, No Iterations 3
time step continuity errors : sum local = 0.000971908, global = -1.05487e-15, cumulative = -4.34375e-15
smoothSolver:  Solving for nuTilda, Initial residual = 0.00265444, Final residual = 4.26097e-05, No Iterations 4
bounding nuTilda, min: -0.00036629 max: 0.142528 average: 0.124207
ExecutionTime = 0.38 s  ClockTime = 0 s

Time = 26

smoothSolver:  Solving for Ux, Initial residual = 0.0145199, Final residual = 0.00100546, No Iterations 2
smoothSolver:  Solving for Uy, Initial residual = 0.0100978, Final residual = 0.000850315, No Iterations 2
GAMG:  Solving for p, Initial residual = 0.495528, Final residual = 0.0488881, No Iterations 3
time step continuity errors : sum local = 0.00101581, global = -8.94616e-16, cumulative = -5.23836e-15
smoothSolver:  Solving for nuTilda, Initial residual = 0.0025645, Final residual = 4.16578e-05, No Iterations 4
ExecutionTime = 0.4 s  ClockTime = 0 s

Time = 27

smoothSolver:  Solving for Ux, Initial residual = 0.0142233, Final residual = 0.000952989, No Iterations 2
smoothSolver:  Solving for Uy, Initial residual = 0.0095826, Final residual = 0.00080295, No Iterations 2
GAMG:  Solving for p, Initial residual = 0.491741, Final residual = 0.0428648, No Iterations 3
time step continuity errors : sum local = 0.000855909, global = 3.08232e-16, cumulative = -4.93013e-15
smoothSolver:  Solving for nuTilda, Initial residual = 0.00248799, Final residual = 4.09566e-05, No Iterations 4
ExecutionTime = 0.41 s  ClockTime = 0 s

Time = 28

smoothSolver:  Solving for Ux, Initial residual = 0.0142423, Final residual = 0.000862325, No Iterations 2
smoothSolver:  Solving for Uy, Initial residual = 0.00938154, Final residual = 0.000787666, No Iterations 2
GAMG:  Solving for p, Initial residual = 0.485023, Final residual = 0.0423308, No Iterations 3
time step continuity errors : sum local = 0.000816298, global = 3.79591e-17, cumulative = -4.89217e-15
smoothSolver:  Solving for nuTilda, Initial residual = 0.00242471, Final residual = 4.04993e-05, No Iterations 4
ExecutionTime = 0.42 s  ClockTime = 0 s

Time = 29

smoothSolver:  Solving for Ux, Initial residual = 0.0143112, Final residual = 0.000822722, No Iterations 2
smoothSolver:  Solving for Uy, Initial residual = 0.00926945, Final residual = 0.000771422, No Iterations 2
GAMG:  Solving for p, Initial residual = 0.470279, Final residual = 0.0353434, No Iterations 4
time step continuity errors : sum local = 0.000663613, global = 2.85002e-16, cumulative = -4.60717e-15
smoothSolver:  Solving for nuTilda, Initial residual = 0.00237056, Final residual = 4.00995e-05, No Iterations 4
ExecutionTime = 0.44 s  ClockTime = 0 s

Time = 30

smoothSolver:  Solving for Ux, Initial residual = 0.0140951, Final residual = 0.000855733, No Iterations 2
smoothSolver:  Solving for Uy, Initial residual = 0.00893012, Final residual = 0.00076931, No Iterations 2
GAMG:  Solving for p, Initial residual = 0.453123, Final residual = 0.0442807, No Iterations 3
time step continuity errors : sum local = 0.000815215, global = 3.1742e-16, cumulative = -4.28975e-15
smoothSolver:  Solving for nuTilda, Initial residual = 0.00232611, Final residual = 3.98611e-05, No Iterations 4
ExecutionTime = 0.45 s  ClockTime = 0 s

Time = 31

smoothSolver:  Solving for Ux, Initial residual = 0.0139658, Final residual = 0.000880233, No Iterations 2
smoothSolver:  Solving for Uy, Initial residual = 0.00834405, Final residual = 0.000753028, No Iterations 2
GAMG:  Solving for p, Initial residual = 0.436319, Final residual = 0.0415787, No Iterations 3
time step continuity errors : sum local = 0.000758296, global = -7.85091e-16, cumulative = -5.07484e-15
smoothSolver:  Solving for nuTilda, Initial residual = 0.0022819, Final residual = 3.96154e-05, No Iterations 4
ExecutionTime = 0.47 s  ClockTime = 0 s

Time = 32

smoothSolver:  Solving for Ux, Initial residual = 0.013451, Final residual = 0.000858214, No Iterations 2
smoothSolver:  Solving for Uy, Initial residual = 0.00776025, Final residual = 0.000744244, No Iterations 2
GAMG:  Solving for p, Initial residual = 0.423533, Final residual = 0.0351438, No Iterations 3
time step continuity errors : sum local = 0.000612507, global = -2.70722e-16, cumulative = -5.34556e-15
smoothSolver:  Solving for nuTilda, Initial residual = 0.00223702, Final residual = 3.94497e-05, No Iterations 4
ExecutionTime = 0.48 s  ClockTime = 1 s

Time = 33

smoothSolver:  Solving for Ux, Initial residual = 0.0127477, Final residual = 0.000840333, No Iterations 2
smoothSolver:  Solving for Uy, Initial residual = 0.00786551, Final residual = 0.000751434, No Iterations 2
GAMG:  Solving for p, Initial residual = 0.411249, Final residual = 0.0200601, No Iterations 4
time step continuity errors : sum local = 0.000345047, global = -2.9408e-16, cumulative = -5.63964e-15
smoothSolver:  Solving for nuTilda, Initial residual = 0.0021949, Final residual = 3.94375e-05, No Iterations 4
ExecutionTime = 0.49 s  ClockTime = 1 s

Time = 34

smoothSolver:  Solving for Ux, Initial residual = 0.0122164, Final residual = 0.000839596, No Iterations 2
smoothSolver:  Solving for Uy, Initial residual = 0.00809764, Final residual = 0.000735928, No Iterations 2
GAMG:  Solving for p, Initial residual = 0.397918, Final residual = 0.0315307, No Iterations 4
time step continuity errors : sum local = 0.00053432, global = -6.449e-16, cumulative = -6.28454e-15
smoothSolver:  Solving for nuTilda, Initial residual = 0.00215702, Final residual = 3.95214e-05, No Iterations 4
ExecutionTime = 0.5 s  ClockTime = 1 s

Time = 35

smoothSolver:  Solving for Ux, Initial residual = 0.0127823, Final residual = 0.000824089, No Iterations 2
smoothSolver:  Solving for Uy, Initial residual = 0.00803062, Final residual = 0.000710317, No Iterations 2
GAMG:  Solving for p, Initial residual = 0.387474, Final residual = 0.0299709, No Iterations 3
time step continuity errors : sum local = 0.000498388, global = -3.00721e-16, cumulative = -6.58526e-15
smoothSolver:  Solving for nuTilda, Initial residual = 0.00212498, Final residual = 3.97171e-05, No Iterations 4
ExecutionTime = 0.51 s  ClockTime = 1 s

Time = 36

smoothSolver:  Solving for Ux, Initial residual = 0.0124146, Final residual = 0.000783221, No Iterations 2
smoothSolver:  Solving for Uy, Initial residual = 0.0076588, Final residual = 0.000670164, No Iterations 2
GAMG:  Solving for p, Initial residual = 0.374209, Final residual = 0.0272878, No Iterations 4
time step continuity errors : sum local = 0.000445434, global = -3.1705e-16, cumulative = -6.90231e-15
smoothSolver:  Solving for nuTilda, Initial residual = 0.00209822, Final residual = 3.98826e-05, No Iterations 4
ExecutionTime = 0.53 s  ClockTime = 1 s

Time = 37

smoothSolver:  Solving for Ux, Initial residual = 0.0117887, Final residual = 0.00075688, No Iterations 2
smoothSolver:  Solving for Uy, Initial residual = 0.00706149, Final residual = 0.00062985, No Iterations 2
GAMG:  Solving for p, Initial residual = 0.357476, Final residual = 0.0150499, No Iterations 4
time step continuity errors : sum local = 0.000238464, global = 3.13924e-16, cumulative = -6.58839e-15
smoothSolver:  Solving for nuTilda, Initial residual = 0.00207207, Final residual = 4.00449e-05, No Iterations 4
ExecutionTime = 0.54 s  ClockTime = 1 s

Time = 38

smoothSolver:  Solving for Ux, Initial residual = 0.0117621, Final residual = 0.000766853, No Iterations 2
smoothSolver:  Solving for Uy, Initial residual = 0.00682486, Final residual = 0.000643449, No Iterations 2
GAMG:  Solving for p, Initial residual = 0.34293, Final residual = 0.0253747, No Iterations 4
time step continuity errors : sum local = 0.000398935, global = 1.29028e-15, cumulative = -5.29811e-15
smoothSolver:  Solving for nuTilda, Initial residual = 0.00204611, Final residual = 4.01785e-05, No Iterations 4
ExecutionTime = 0.56 s  ClockTime = 1 s

Time = 39

smoothSolver:  Solving for Ux, Initial residual = 0.0117439, Final residual = 0.00076254, No Iterations 2
smoothSolver:  Solving for Uy, Initial residual = 0.0065605, Final residual = 0.000132767, No Iterations 4
GAMG:  Solving for p, Initial residual = 0.340683, Final residual = 0.0251649, No Iterations 3
time step continuity errors : sum local = 0.000391992, global = -9.74639e-16, cumulative = -6.27275e-15
smoothSolver:  Solving for nuTilda, Initial residual = 0.00202267, Final residual = 4.03682e-05, No Iterations 4
ExecutionTime = 0.57 s  ClockTime = 1 s

Time = 40

smoothSolver:  Solving for Ux, Initial residual = 0.0112858, Final residual = 0.000744018, No Iterations 2
smoothSolver:  Solving for Uy, Initial residual = 0.00646385, Final residual = 0.000631593, No Iterations 2
GAMG:  Solving for p, Initial residual = 0.328094, Final residual = 0.0145601, No Iterations 4
time step continuity errors : sum local = 0.000221401, global = 8.32366e-16, cumulative = -5.44038e-15
smoothSolver:  Solving for nuTilda, Initial residual = 0.00199944, Final residual = 4.05702e-05, No Iterations 4
ExecutionTime = 0.58 s  ClockTime = 1 s

Time = 41

smoothSolver:  Solving for Ux, Initial residual = 0.0106854, Final residual = 0.000736433, No Iterations 2
smoothSolver:  Solving for Uy, Initial residual = 0.00652555, Final residual = 0.000606916, No Iterations 2
GAMG:  Solving for p, Initial residual = 0.314994, Final residual = 0.0134246, No Iterations 4
time step continuity errors : sum local = 0.000203111, global = 5.60075e-17, cumulative = -5.38438e-15
smoothSolver:  Solving for nuTilda, Initial residual = 0.00197881, Final residual = 4.08834e-05, No Iterations 4
ExecutionTime = 0.6 s  ClockTime = 1 s

Time = 42

smoothSolver:  Solving for Ux, Initial residual = 0.0106394, Final residual = 0.000733637, No Iterations 2
smoothSolver:  Solving for Uy, Initial residual = 0.00653929, Final residual = 0.000593529, No Iterations 2
GAMG:  Solving for p, Initial residual = 0.299537, Final residual = 0.0246876, No Iterations 3
time step continuity errors : sum local = 0.000372855, global = -3.63307e-18, cumulative = -5.38801e-15
smoothSolver:  Solving for nuTilda, Initial residual = 0.0019599, Final residual = 4.12599e-05, No Iterations 4
ExecutionTime = 0.61 s  ClockTime = 1 s

Time = 43

smoothSolver:  Solving for Ux, Initial residual = 0.0105748, Final residual = 0.000715243, No Iterations 2
smoothSolver:  Solving for Uy, Initial residual = 0.00642491, Final residual = 0.000591672, No Iterations 2
GAMG:  Solving for p, Initial residual = 0.286351, Final residual = 0.0202943, No Iterations 3
time step continuity errors : sum local = 0.000304093, global = -5.50345e-16, cumulative = -5.93836e-15
smoothSolver:  Solving for nuTilda, Initial residual = 0.00194345, Final residual = 4.16883e-05, No Iterations 4
ExecutionTime = 0.62 s  ClockTime = 1 s

Time = 44

smoothSolver:  Solving for Ux, Initial residual = 0.0103307, Final residual = 0.000686022, No Iterations 2
smoothSolver:  Solving for Uy, Initial residual = 0.00628391, Final residual = 0.000593448, No Iterations 2
GAMG:  Solving for p, Initial residual = 0.274451, Final residual = 0.0105348, No Iterations 4
time step continuity errors : sum local = 0.000153266, global = 2.75785e-16, cumulative = -5.66257e-15
smoothSolver:  Solving for nuTilda, Initial residual = 0.00192842, Final residual = 4.20924e-05, No Iterations 4
ExecutionTime = 0.63 s  ClockTime = 1 s

Time = 45

smoothSolver:  Solving for Ux, Initial residual = 0.00980688, Final residual = 0.000659179, No Iterations 2
smoothSolver:  Solving for Uy, Initial residual = 0.00602929, Final residual = 0.000586919, No Iterations 2
GAMG:  Solving for p, Initial residual = 0.26599, Final residual = 0.0215593, No Iterations 4
time step continuity errors : sum local = 0.000310542, global = -6.59507e-16, cumulative = -6.32208e-15
smoothSolver:  Solving for nuTilda, Initial residual = 0.00191426, Final residual = 4.24565e-05, No Iterations 4
ExecutionTime = 0.65 s  ClockTime = 1 s

Time = 46

smoothSolver:  Solving for Ux, Initial residual = 0.0096345, Final residual = 0.000650026, No Iterations 2
smoothSolver:  Solving for Uy, Initial residual = 0.00575461, Final residual = 0.000571149, No Iterations 2
GAMG:  Solving for p, Initial residual = 0.259418, Final residual = 0.0203538, No Iterations 3
time step continuity errors : sum local = 0.000290858, global = -5.82109e-16, cumulative = -6.90419e-15
smoothSolver:  Solving for nuTilda, Initial residual = 0.00190092, Final residual = 4.28233e-05, No Iterations 4
ExecutionTime = 0.66 s  ClockTime = 1 s

Time = 47

smoothSolver:  Solving for Ux, Initial residual = 0.00939396, Final residual = 0.000638074, No Iterations 2
smoothSolver:  Solving for Uy, Initial residual = 0.00561688, Final residual = 0.000555285, No Iterations 2
GAMG:  Solving for p, Initial residual = 0.248907, Final residual = 0.0202687, No Iterations 3
time step continuity errors : sum local = 0.000291303, global = 1.03358e-16, cumulative = -6.80083e-15
smoothSolver:  Solving for nuTilda, Initial residual = 0.00188806, Final residual = 4.31841e-05, No Iterations 4
ExecutionTime = 0.67 s  ClockTime = 1 s

Time = 48

smoothSolver:  Solving for Ux, Initial residual = 0.00912444, Final residual = 0.000631908, No Iterations 2
smoothSolver:  Solving for Uy, Initial residual = 0.00552618, Final residual = 0.000544507, No Iterations 2
GAMG:  Solving for p, Initial residual = 0.236936, Final residual = 0.0202988, No Iterations 3
time step continuity errors : sum local = 0.000283554, global = 4.48564e-16, cumulative = -6.35226e-15
smoothSolver:  Solving for nuTilda, Initial residual = 0.00187739, Final residual = 4.36035e-05, No Iterations 4
ExecutionTime = 0.68 s  ClockTime = 1 s

Time = 49

smoothSolver:  Solving for Ux, Initial residual = 0.00889286, Final residual = 0.000624314, No Iterations 2
smoothSolver:  Solving for Uy, Initial residual = 0.00545133, Final residual = 0.00053646, No Iterations 2
GAMG:  Solving for p, Initial residual = 0.225759, Final residual = 0.00980971, No Iterations 4
time step continuity errors : sum local = 0.000136896, global = 1.52957e-16, cumulative = -6.19931e-15
smoothSolver:  Solving for nuTilda, Initial residual = 0.00186614, Final residual = 4.40119e-05, No Iterations 4
ExecutionTime = 0.7 s  ClockTime = 1 s

Time = 50

smoothSolver:  Solving for Ux, Initial residual = 0.00893266, Final residual = 0.000620076, No Iterations 2
smoothSolver:  Solving for Uy, Initial residual = 0.00540683, Final residual = 0.000521427, No Iterations 2
GAMG:  Solving for p, Initial residual = 0.216781, Final residual = 0.0163679, No Iterations 3
time step continuity errors : sum local = 0.000228387, global = 5.28608e-16, cumulative = -5.6707e-15
smoothSolver:  Solving for nuTilda, Initial residual = 0.0018561, Final residual = 4.4448e-05, No Iterations 4
ExecutionTime = 0.71 s  ClockTime = 1 s

Time = 51

smoothSolver:  Solving for Ux, Initial residual = 0.0087643, Final residual = 0.00060112, No Iterations 2
smoothSolver:  Solving for Uy, Initial residual = 0.00539112, Final residual = 0.000508334, No Iterations 2
GAMG:  Solving for p, Initial residual = 0.208687, Final residual = 0.0139859, No Iterations 3
time step continuity errors : sum local = 0.000194871, global = 4.31851e-16, cumulative = -5.23885e-15
smoothSolver:  Solving for nuTilda, Initial residual = 0.00184547, Final residual = 4.48755e-05, No Iterations 4
ExecutionTime = 0.72 s  ClockTime = 1 s

Time = 52

smoothSolver:  Solving for Ux, Initial residual = 0.00838246, Final residual = 0.00057077, No Iterations 2
smoothSolver:  Solving for Uy, Initial residual = 0.00535657, Final residual = 0.000498031, No Iterations 2
GAMG:  Solving for p, Initial residual = 0.200896, Final residual = 0.0160649, No Iterations 3
time step continuity errors : sum local = 0.000216784, global = 9.30731e-16, cumulative = -4.30812e-15
smoothSolver:  Solving for nuTilda, Initial residual = 0.00183379, Final residual = 4.52615e-05, No Iterations 4
ExecutionTime = 0.74 s  ClockTime = 1 s

Time = 53

smoothSolver:  Solving for Ux, Initial residual = 0.00798044, Final residual = 0.000542603, No Iterations 2
smoothSolver:  Solving for Uy, Initial residual = 0.0052563, Final residual = 0.000491528, No Iterations 2
GAMG:  Solving for p, Initial residual = 0.194073, Final residual = 0.00836666, No Iterations 4
time step continuity errors : sum local = 0.000111986, global = -7.2846e-16, cumulative = -5.03658e-15
smoothSolver:  Solving for nuTilda, Initial residual = 0.00182078, Final residual = 4.56002e-05, No Iterations 4
ExecutionTime = 0.75 s  ClockTime = 1 s

Time = 54

smoothSolver:  Solving for Ux, Initial residual = 0.00780848, Final residual = 0.000532011, No Iterations 2
smoothSolver:  Solving for Uy, Initial residual = 0.00499211, Final residual = 0.000485228, No Iterations 2
GAMG:  Solving for p, Initial residual = 0.18405, Final residual = 0.0139556, No Iterations 4
time step continuity errors : sum local = 0.000187456, global = 4.71843e-16, cumulative = -4.56473e-15
smoothSolver:  Solving for nuTilda, Initial residual = 0.00180685, Final residual = 4.58981e-05, No Iterations 4
ExecutionTime = 0.76 s  ClockTime = 1 s

Time = 55

smoothSolver:  Solving for Ux, Initial residual = 0.00776637, Final residual = 0.000523595, No Iterations 2
smoothSolver:  Solving for Uy, Initial residual = 0.00475836, Final residual = 0.00047312, No Iterations 2
GAMG:  Solving for p, Initial residual = 0.175905, Final residual = 0.0118517, No Iterations 3
time step continuity errors : sum local = 0.000160628, global = 2.46513e-16, cumulative = -4.31822e-15
smoothSolver:  Solving for nuTilda, Initial residual = 0.00179192, Final residual = 4.6178e-05, No Iterations 4
ExecutionTime = 0.78 s  ClockTime = 1 s

Time = 56

smoothSolver:  Solving for Ux, Initial residual = 0.00757724, Final residual = 0.00051009, No Iterations 2
smoothSolver:  Solving for Uy, Initial residual = 0.00467781, Final residual = 0.000457623, No Iterations 2
GAMG:  Solving for p, Initial residual = 0.168665, Final residual = 0.00745623, No Iterations 4
time step continuity errors : sum local = 9.88995e-05, global = -4.60619e-16, cumulative = -4.77884e-15
smoothSolver:  Solving for nuTilda, Initial residual = 0.00177596, Final residual = 4.64389e-05, No Iterations 4
ExecutionTime = 0.79 s  ClockTime = 1 s

Time = 57

smoothSolver:  Solving for Ux, Initial residual = 0.00736189, Final residual = 0.000498209, No Iterations 2
smoothSolver:  Solving for Uy, Initial residual = 0.00470773, Final residual = 0.000441738, No Iterations 2
GAMG:  Solving for p, Initial residual = 0.160538, Final residual = 0.00677835, No Iterations 4
time step continuity errors : sum local = 8.9225e-05, global = -6.49377e-17, cumulative = -4.84378e-15
smoothSolver:  Solving for nuTilda, Initial residual = 0.00175901, Final residual = 4.66969e-05, No Iterations 4
ExecutionTime = 0.8 s  ClockTime = 1 s

Time = 58

smoothSolver:  Solving for Ux, Initial residual = 0.0073349, Final residual = 0.000487693, No Iterations 2
smoothSolver:  Solving for Uy, Initial residual = 0.00477736, Final residual = 0.000434371, No Iterations 2
GAMG:  Solving for p, Initial residual = 0.1555, Final residual = 0.00965489, No Iterations 3
time step continuity errors : sum local = 0.000128178, global = 1.56721e-16, cumulative = -4.68706e-15
smoothSolver:  Solving for nuTilda, Initial residual = 0.00174144, Final residual = 4.69175e-05, No Iterations 4
ExecutionTime = 0.82 s  ClockTime = 1 s

Time = 59

smoothSolver:  Solving for Ux, Initial residual = 0.0071455, Final residual = 0.000470452, No Iterations 2
smoothSolver:  Solving for Uy, Initial residual = 0.00476067, Final residual = 0.000432557, No Iterations 2
GAMG:  Solving for p, Initial residual = 0.150969, Final residual = 0.00942291, No Iterations 3
time step continuity errors : sum local = 0.000121606, global = -5.86165e-16, cumulative = -5.27322e-15
smoothSolver:  Solving for nuTilda, Initial residual = 0.00172296, Final residual = 4.71314e-05, No Iterations 4
ExecutionTime = 0.83 s  ClockTime = 1 s

Time = 60

smoothSolver:  Solving for Ux, Initial residual = 0.0068683, Final residual = 0.000450387, No Iterations 2
smoothSolver:  Solving for Uy, Initial residual = 0.00464133, Final residual = 0.000429621, No Iterations 2
GAMG:  Solving for p, Initial residual = 0.145066, Final residual = 0.00558493, No Iterations 4
time step continuity errors : sum local = 7.17054e-05, global = -1.9666e-16, cumulative = -5.46988e-15
smoothSolver:  Solving for nuTilda, Initial residual = 0.00170307, Final residual = 4.72967e-05, No Iterations 4
ExecutionTime = 0.84 s  ClockTime = 1 s

Time = 61

smoothSolver:  Solving for Ux, Initial residual = 0.00662687, Final residual = 0.000434572, No Iterations 2
smoothSolver:  Solving for Uy, Initial residual = 0.0043998, Final residual = 0.000418028, No Iterations 2
GAMG:  Solving for p, Initial residual = 0.136074, Final residual = 0.00559404, No Iterations 4
time step continuity errors : sum local = 7.12932e-05, global = 8.69411e-16, cumulative = -4.60047e-15
smoothSolver:  Solving for nuTilda, Initial residual = 0.00168086, Final residual = 4.74077e-05, No Iterations 4
ExecutionTime = 0.86 s  ClockTime = 1 s

Time = 62

smoothSolver:  Solving for Ux, Initial residual = 0.00658839, Final residual = 0.000424722, No Iterations 2
smoothSolver:  Solving for Uy, Initial residual = 0.00423567, Final residual = 0.000399273, No Iterations 2
GAMG:  Solving for p, Initial residual = 0.129846, Final residual = 0.0094826, No Iterations 3
time step continuity errors : sum local = 0.000121984, global = 3.04904e-16, cumulative = -4.29557e-15
smoothSolver:  Solving for nuTilda, Initial residual = 0.00165826, Final residual = 4.74788e-05, No Iterations 4
ExecutionTime = 0.87 s  ClockTime = 1 s

Time = 63

smoothSolver:  Solving for Ux, Initial residual = 0.00650663, Final residual = 0.000413481, No Iterations 2
smoothSolver:  Solving for Uy, Initial residual = 0.00414851, Final residual = 0.000383631, No Iterations 2
GAMG:  Solving for p, Initial residual = 0.125275, Final residual = 0.00931312, No Iterations 3
time step continuity errors : sum local = 0.000117161, global = 1.13785e-15, cumulative = -3.15771e-15
smoothSolver:  Solving for nuTilda, Initial residual = 0.00163468, Final residual = 4.7515e-05, No Iterations 4
ExecutionTime = 0.88 s  ClockTime = 1 s

Time = 64

smoothSolver:  Solving for Ux, Initial residual = 0.00638023, Final residual = 0.000402173, No Iterations 2
smoothSolver:  Solving for Uy, Initial residual = 0.00412051, Final residual = 0.000374079, No Iterations 2
GAMG:  Solving for p, Initial residual = 0.120744, Final residual = 0.00440069, No Iterations 4
time step continuity errors : sum local = 5.53747e-05, global = -1.82141e-16, cumulative = -3.33986e-15
smoothSolver:  Solving for nuTilda, Initial residual = 0.0016093, Final residual = 4.75122e-05, No Iterations 4
ExecutionTime = 0.9 s  ClockTime = 1 s

Time = 65

smoothSolver:  Solving for Ux, Initial residual = 0.00624586, Final residual = 0.000392308, No Iterations 2
smoothSolver:  Solving for Uy, Initial residual = 0.00415745, Final residual = 0.000369495, No Iterations 2
GAMG:  Solving for p, Initial residual = 0.115868, Final residual = 0.00385669, No Iterations 4
time step continuity errors : sum local = 4.8252e-05, global = 2.117e-16, cumulative = -3.12816e-15
smoothSolver:  Solving for nuTilda, Initial residual = 0.00158267, Final residual = 4.74827e-05, No Iterations 4
ExecutionTime = 0.91 s  ClockTime = 1 s

Time = 66

smoothSolver:  Solving for Ux, Initial residual = 0.00608431, Final residual = 0.000380824, No Iterations 2
smoothSolver:  Solving for Uy, Initial residual = 0.00414407, Final residual = 0.000366659, No Iterations 2
GAMG:  Solving for p, Initial residual = 0.111655, Final residual = 0.00644296, No Iterations 3
time step continuity errors : sum local = 7.99191e-05, global = -2.899e-16, cumulative = -3.41806e-15
smoothSolver:  Solving for nuTilda, Initial residual = 0.00155578, Final residual = 4.74214e-05, No Iterations 4
ExecutionTime = 0.92 s  ClockTime = 1 s

Time = 67

smoothSolver:  Solving for Ux, Initial residual = 0.00588267, Final residual = 0.000367314, No Iterations 2
smoothSolver:  Solving for Uy, Initial residual = 0.00407283, Final residual = 0.000359596, No Iterations 2
GAMG:  Solving for p, Initial residual = 0.107042, Final residual = 0.00998235, No Iterations 3
time step continuity errors : sum local = 0.000124955, global = 3.63358e-16, cumulative = -3.0547e-15
smoothSolver:  Solving for nuTilda, Initial residual = 0.00152803, Final residual = 4.73372e-05, No Iterations 4
ExecutionTime = 0.94 s  ClockTime = 1 s

Time = 68

smoothSolver:  Solving for Ux, Initial residual = 0.00572589, Final residual = 0.000354141, No Iterations 2
smoothSolver:  Solving for Uy, Initial residual = 0.00395737, Final residual = 0.000348145, No Iterations 2
GAMG:  Solving for p, Initial residual = 0.100815, Final residual = 0.00850805, No Iterations 3
time step continuity errors : sum local = 0.000104495, global = -2.17302e-16, cumulative = -3.272e-15
smoothSolver:  Solving for nuTilda, Initial residual = 0.00149971, Final residual = 4.72077e-05, No Iterations 4
ExecutionTime = 0.95 s  ClockTime = 1 s

Time = 69

smoothSolver:  Solving for Ux, Initial residual = 0.00565667, Final residual = 0.000343871, No Iterations 2
smoothSolver:  Solving for Uy, Initial residual = 0.00380854, Final residual = 0.000335089, No Iterations 2
GAMG:  Solving for p, Initial residual = 0.0967479, Final residual = 0.00923429, No Iterations 3
time step continuity errors : sum local = 0.000112598, global = 5.18498e-16, cumulative = -2.7535e-15
smoothSolver:  Solving for nuTilda, Initial residual = 0.00147083, Final residual = 4.70416e-05, No Iterations 4
ExecutionTime = 0.96 s  ClockTime = 1 s

Time = 70

smoothSolver:  Solving for Ux, Initial residual = 0.00562366, Final residual = 0.000336664, No Iterations 2
smoothSolver:  Solving for Uy, Initial residual = 0.00364363, Final residual = 0.000322175, No Iterations 2
GAMG:  Solving for p, Initial residual = 0.0937939, Final residual = 0.00352966, No Iterations 4
time step continuity errors : sum local = 4.29524e-05, global = -9.69806e-16, cumulative = -3.72331e-15
smoothSolver:  Solving for nuTilda, Initial residual = 0.00144247, Final residual = 4.68497e-05, No Iterations 4
ExecutionTime = 0.97 s  ClockTime = 1 s

Time = 71

smoothSolver:  Solving for Ux, Initial residual = 0.00556553, Final residual = 0.000330643, No Iterations 2
smoothSolver:  Solving for Uy, Initial residual = 0.00354791, Final residual = 0.000310667, No Iterations 2
GAMG:  Solving for p, Initial residual = 0.0891709, Final residual = 0.00518024, No Iterations 3
time step continuity errors : sum local = 6.25284e-05, global = -8.79227e-16, cumulative = -4.60253e-15
smoothSolver:  Solving for nuTilda, Initial residual = 0.00141424, Final residual = 4.66329e-05, No Iterations 4
ExecutionTime = 0.99 s  ClockTime = 1 s

Time = 72

smoothSolver:  Solving for Ux, Initial residual = 0.00538223, Final residual = 0.000321725, No Iterations 2
smoothSolver:  Solving for Uy, Initial residual = 0.00354889, Final residual = 0.000305695, No Iterations 2
GAMG:  Solving for p, Initial residual = 0.0857548, Final residual = 0.00608657, No Iterations 3
time step continuity errors : sum local = 7.29329e-05, global = -8.28057e-16, cumulative = -5.43059e-15
smoothSolver:  Solving for nuTilda, Initial residual = 0.00138542, Final residual = 4.63722e-05, No Iterations 4
ExecutionTime = 1 s  ClockTime = 1 s

Time = 73

smoothSolver:  Solving for Ux, Initial residual = 0.00514629, Final residual = 0.000311458, No Iterations 2
smoothSolver:  Solving for Uy, Initial residual = 0.00357765, Final residual = 0.000302316, No Iterations 2
GAMG:  Solving for p, Initial residual = 0.0822159, Final residual = 0.00310396, No Iterations 4
time step continuity errors : sum local = 3.72559e-05, global = 1.13132e-16, cumulative = -5.31746e-15
smoothSolver:  Solving for nuTilda, Initial residual = 0.00135683, Final residual = 4.61096e-05, No Iterations 4
ExecutionTime = 1.01 s  ClockTime = 1 s

Time = 74

smoothSolver:  Solving for Ux, Initial residual = 0.0049238, Final residual = 0.000300279, No Iterations 2
smoothSolver:  Solving for Uy, Initial residual = 0.00354995, Final residual = 0.000297037, No Iterations 2
GAMG:  Solving for p, Initial residual = 0.0778907, Final residual = 0.00701574, No Iterations 3
time step continuity errors : sum local = 8.51428e-05, global = -6.58616e-16, cumulative = -5.97608e-15
smoothSolver:  Solving for nuTilda, Initial residual = 0.0013292, Final residual = 4.58327e-05, No Iterations 4
ExecutionTime = 1.03 s  ClockTime = 1 s

Time = 75

smoothSolver:  Solving for Ux, Initial residual = 0.0048109, Final residual = 0.000291642, No Iterations 2
smoothSolver:  Solving for Uy, Initial residual = 0.00342898, Final residual = 0.000288671, No Iterations 2
GAMG:  Solving for p, Initial residual = 0.0747548, Final residual = 0.00547425, No Iterations 3
time step continuity errors : sum local = 6.55274e-05, global = -8.92867e-17, cumulative = -6.06536e-15
smoothSolver:  Solving for nuTilda, Initial residual = 0.00130269, Final residual = 4.55608e-05, No Iterations 4
ExecutionTime = 1.04 s  ClockTime = 1 s

Time = 76

smoothSolver:  Solving for Ux, Initial residual = 0.00473668, Final residual = 0.000284691, No Iterations 2
smoothSolver:  Solving for Uy, Initial residual = 0.003263, Final residual = 0.000278342, No Iterations 2
GAMG:  Solving for p, Initial residual = 0.0716408, Final residual = 0.00606645, No Iterations 3
time step continuity errors : sum local = 7.16528e-05, global = -3.32104e-16, cumulative = -6.39747e-15
smoothSolver:  Solving for nuTilda, Initial residual = 0.00127702, Final residual = 4.52644e-05, No Iterations 4
ExecutionTime = 1.06 s  ClockTime = 1 s

Time = 77

smoothSolver:  Solving for Ux, Initial residual = 0.00466547, Final residual = 0.000278884, No Iterations 2
smoothSolver:  Solving for Uy, Initial residual = 0.00312548, Final residual = 0.000267232, No Iterations 2
GAMG:  Solving for p, Initial residual = 0.0692765, Final residual = 0.00240559, No Iterations 4
time step continuity errors : sum local = 2.84699e-05, global = -8.85138e-17, cumulative = -6.48598e-15
smoothSolver:  Solving for nuTilda, Initial residual = 0.00125275, Final residual = 4.49747e-05, No Iterations 4
ExecutionTime = 1.07 s  ClockTime = 1 s

Time = 78

smoothSolver:  Solving for Ux, Initial residual = 0.00460074, Final residual = 0.000274389, No Iterations 2
smoothSolver:  Solving for Uy, Initial residual = 0.00306173, Final residual = 0.000256095, No Iterations 2
GAMG:  Solving for p, Initial residual = 0.0653984, Final residual = 0.0042443, No Iterations 3
time step continuity errors : sum local = 4.9696e-05, global = 1.75232e-16, cumulative = -6.31075e-15
smoothSolver:  Solving for nuTilda, Initial residual = 0.00123051, Final residual = 4.46826e-05, No Iterations 4
ExecutionTime = 1.08 s  ClockTime = 1 s

Time = 79

smoothSolver:  Solving for Ux, Initial residual = 0.00441997, Final residual = 0.000268149, No Iterations 2
smoothSolver:  Solving for Uy, Initial residual = 0.00306998, Final residual = 0.000250933, No Iterations 2
GAMG:  Solving for p, Initial residual = 0.0623094, Final residual = 0.00451394, No Iterations 3
time step continuity errors : sum local = 5.4109e-05, global = 7.35911e-16, cumulative = -5.57484e-15
smoothSolver:  Solving for nuTilda, Initial residual = 0.00121015, Final residual = 4.44013e-05, No Iterations 4
ExecutionTime = 1.09 s  ClockTime = 1 s

Time = 80

smoothSolver:  Solving for Ux, Initial residual = 0.00420209, Final residual = 0.00026122, No Iterations 2
smoothSolver:  Solving for Uy, Initial residual = 0.00306285, Final residual = 0.000247509, No Iterations 2
GAMG:  Solving for p, Initial residual = 0.0588933, Final residual = 0.00502279, No Iterations 3
time step continuity errors : sum local = 5.84991e-05, global = -1.61493e-16, cumulative = -5.73633e-15
smoothSolver:  Solving for nuTilda, Initial residual = 0.00119079, Final residual = 4.41008e-05, No Iterations 4
ExecutionTime = 1.11 s  ClockTime = 1 s

Time = 81

smoothSolver:  Solving for Ux, Initial residual = 0.00399165, Final residual = 0.000253743, No Iterations 2
smoothSolver:  Solving for Uy, Initial residual = 0.00298893, Final residual = 0.000242928, No Iterations 2
GAMG:  Solving for p, Initial residual = 0.0570712, Final residual = 0.00247456, No Iterations 4
time step continuity errors : sum local = 2.89301e-05, global = -2.95711e-16, cumulative = -6.03204e-15
smoothSolver:  Solving for nuTilda, Initial residual = 0.00117131, Final residual = 4.38078e-05, No Iterations 4
ExecutionTime = 1.12 s  ClockTime = 1 s

Time = 82

smoothSolver:  Solving for Ux, Initial residual = 0.00385113, Final residual = 0.000247496, No Iterations 2
smoothSolver:  Solving for Uy, Initial residual = 0.00281256, Final residual = 0.000232716, No Iterations 2
GAMG:  Solving for p, Initial residual = 0.0543911, Final residual = 0.00383158, No Iterations 3
time step continuity errors : sum local = 4.42738e-05, global = -1.99253e-16, cumulative = -6.23129e-15
smoothSolver:  Solving for nuTilda, Initial residual = 0.00115223, Final residual = 4.35219e-05, No Iterations 4
ExecutionTime = 1.14 s  ClockTime = 1 s

Time = 83

smoothSolver:  Solving for Ux, Initial residual = 0.00379229, Final residual = 0.000244053, No Iterations 2
smoothSolver:  Solving for Uy, Initial residual = 0.00268802, Final residual = 0.000224937, No Iterations 2
GAMG:  Solving for p, Initial residual = 0.0520661, Final residual = 0.00387645, No Iterations 3
time step continuity errors : sum local = 4.46483e-05, global = 3.88029e-16, cumulative = -5.84326e-15
smoothSolver:  Solving for nuTilda, Initial residual = 0.0011336, Final residual = 4.32559e-05, No Iterations 4
ExecutionTime = 1.15 s  ClockTime = 1 s

Time = 84

smoothSolver:  Solving for Ux, Initial residual = 0.00372244, Final residual = 0.000240771, No Iterations 2
smoothSolver:  Solving for Uy, Initial residual = 0.00264188, Final residual = 0.000219243, No Iterations 2
GAMG:  Solving for p, Initial residual = 0.0494982, Final residual = 0.00417322, No Iterations 3
time step continuity errors : sum local = 4.78434e-05, global = -8.87153e-16, cumulative = -6.73042e-15
smoothSolver:  Solving for nuTilda, Initial residual = 0.00111446, Final residual = 4.29522e-05, No Iterations 4
ExecutionTime = 1.16 s  ClockTime = 1 s

Time = 85

smoothSolver:  Solving for Ux, Initial residual = 0.00360497, Final residual = 0.000236793, No Iterations 2
smoothSolver:  Solving for Uy, Initial residual = 0.00265436, Final residual = 0.00021817, No Iterations 2
GAMG:  Solving for p, Initial residual = 0.0473826, Final residual = 0.00387057, No Iterations 3
time step continuity errors : sum local = 4.4288e-05, global = 8.24368e-17, cumulative = -6.64798e-15
smoothSolver:  Solving for nuTilda, Initial residual = 0.00109548, Final residual = 4.26546e-05, No Iterations 4
ExecutionTime = 1.18 s  ClockTime = 1 s

Time = 86

smoothSolver:  Solving for Ux, Initial residual = 0.00344759, Final residual = 0.000231874, No Iterations 2
smoothSolver:  Solving for Uy, Initial residual = 0.00267426, Final residual = 0.000219382, No Iterations 2
GAMG:  Solving for p, Initial residual = 0.0448024, Final residual = 0.00309405, No Iterations 4
time step continuity errors : sum local = 3.54102e-05, global = 3.34246e-16, cumulative = -6.31373e-15
smoothSolver:  Solving for nuTilda, Initial residual = 0.00107701, Final residual = 4.23538e-05, No Iterations 4
ExecutionTime = 1.19 s  ClockTime = 1 s

Time = 87

smoothSolver:  Solving for Ux, Initial residual = 0.00330769, Final residual = 0.000227076, No Iterations 2
smoothSolver:  Solving for Uy, Initial residual = 0.00264107, Final residual = 0.000216664, No Iterations 2
GAMG:  Solving for p, Initial residual = 0.041568, Final residual = 0.00353562, No Iterations 3
time step continuity errors : sum local = 4.02436e-05, global = -6.85832e-16, cumulative = -6.99957e-15
smoothSolver:  Solving for nuTilda, Initial residual = 0.00105905, Final residual = 4.20596e-05, No Iterations 4
ExecutionTime = 1.2 s  ClockTime = 1 s

Time = 88

smoothSolver:  Solving for Ux, Initial residual = 0.00314101, Final residual = 0.000221639, No Iterations 2
smoothSolver:  Solving for Uy, Initial residual = 0.00254901, Final residual = 0.000208868, No Iterations 2
GAMG:  Solving for p, Initial residual = 0.0396382, Final residual = 0.00189564, No Iterations 4
time step continuity errors : sum local = 2.15978e-05, global = -3.23685e-16, cumulative = -7.32325e-15
smoothSolver:  Solving for nuTilda, Initial residual = 0.00104133, Final residual = 4.17453e-05, No Iterations 4
ExecutionTime = 1.22 s  ClockTime = 1 s

Time = 89

smoothSolver:  Solving for Ux, Initial residual = 0.0030243, Final residual = 0.000217013, No Iterations 2
smoothSolver:  Solving for Uy, Initial residual = 0.00236389, Final residual = 0.000194439, No Iterations 2
GAMG:  Solving for p, Initial residual = 0.0380278, Final residual = 0.00162462, No Iterations 4
time step continuity errors : sum local = 1.8537e-05, global = 4.27104e-16, cumulative = -6.89615e-15
smoothSolver:  Solving for nuTilda, Initial residual = 0.00102343, Final residual = 4.14263e-05, No Iterations 4
ExecutionTime = 1.23 s  ClockTime = 1 s

Time = 90

smoothSolver:  Solving for Ux, Initial residual = 0.0029461, Final residual = 0.000213531, No Iterations 2
smoothSolver:  Solving for Uy, Initial residual = 0.00223773, Final residual = 0.00018404, No Iterations 2
GAMG:  Solving for p, Initial residual = 0.0362429, Final residual = 0.00278597, No Iterations 3
time step continuity errors : sum local = 3.1557e-05, global = 7.94859e-16, cumulative = -6.10129e-15
smoothSolver:  Solving for nuTilda, Initial residual = 0.00100593, Final residual = 4.11008e-05, No Iterations 4
ExecutionTime = 1.24 s  ClockTime = 1 s

Time = 91

smoothSolver:  Solving for Ux, Initial residual = 0.00284192, Final residual = 0.000209456, No Iterations 2
smoothSolver:  Solving for Uy, Initial residual = 0.00221904, Final residual = 0.000180495, No Iterations 2
GAMG:  Solving for p, Initial residual = 0.0348679, Final residual = 0.00285021, No Iterations 3
time step continuity errors : sum local = 3.22637e-05, global = 3.09537e-16, cumulative = -5.79175e-15
smoothSolver:  Solving for nuTilda, Initial residual = 0.000989402, Final residual = 4.07867e-05, No Iterations 4
ExecutionTime = 1.26 s  ClockTime = 1 s

Time = 92

smoothSolver:  Solving for Ux, Initial residual = 0.002739, Final residual = 0.000205616, No Iterations 2
smoothSolver:  Solving for Uy, Initial residual = 0.00223564, Final residual = 0.000180472, No Iterations 2
GAMG:  Solving for p, Initial residual = 0.0330024, Final residual = 0.00277031, No Iterations 3
time step continuity errors : sum local = 3.12832e-05, global = -1.73928e-17, cumulative = -5.80914e-15
smoothSolver:  Solving for nuTilda, Initial residual = 0.000973431, Final residual = 4.04542e-05, No Iterations 4
ExecutionTime = 1.27 s  ClockTime = 1 s

Time = 93

smoothSolver:  Solving for Ux, Initial residual = 0.00262881, Final residual = 0.000201476, No Iterations 2
smoothSolver:  Solving for Uy, Initial residual = 0.00224396, Final residual = 0.000180382, No Iterations 2
GAMG:  Solving for p, Initial residual = 0.0310905, Final residual = 0.00257401, No Iterations 3
time step continuity errors : sum local = 2.90358e-05, global = 3.60986e-16, cumulative = -5.44816e-15
smoothSolver:  Solving for nuTilda, Initial residual = 0.000957654, Final residual = 4.01152e-05, No Iterations 4
ExecutionTime = 1.28 s  ClockTime = 1 s

Time = 94

smoothSolver:  Solving for Ux, Initial residual = 0.00250744, Final residual = 0.000196799, No Iterations 2
smoothSolver:  Solving for Uy, Initial residual = 0.00219912, Final residual = 0.000176443, No Iterations 2
GAMG:  Solving for p, Initial residual = 0.029491, Final residual = 0.00284938, No Iterations 3
time step continuity errors : sum local = 3.20492e-05, global = 4.73551e-16, cumulative = -4.97461e-15
smoothSolver:  Solving for nuTilda, Initial residual = 0.000942892, Final residual = 3.97726e-05, No Iterations 4
ExecutionTime = 1.3 s  ClockTime = 1 s

Time = 95

smoothSolver:  Solving for Ux, Initial residual = 0.00238701, Final residual = 0.000191613, No Iterations 2
smoothSolver:  Solving for Uy, Initial residual = 0.00209173, Final residual = 0.000167881, No Iterations 2
GAMG:  Solving for p, Initial residual = 0.0282485, Final residual = 0.00141331, No Iterations 4
time step continuity errors : sum local = 1.59727e-05, global = -8.61288e-16, cumulative = -5.83589e-15
smoothSolver:  Solving for nuTilda, Initial residual = 0.000929076, Final residual = 3.94425e-05, No Iterations 4
ExecutionTime = 1.31 s  ClockTime = 1 s

Time = 96

smoothSolver:  Solving for Ux, Initial residual = 0.002291, Final residual = 0.000186425, No Iterations 2
smoothSolver:  Solving for Uy, Initial residual = 0.00194039, Final residual = 0.000154773, No Iterations 2
GAMG:  Solving for p, Initial residual = 0.0262267, Final residual = 0.00176989, No Iterations 5
time step continuity errors : sum local = 1.9999e-05, global = -1.36962e-16, cumulative = -5.97286e-15
smoothSolver:  Solving for nuTilda, Initial residual = 0.000915736, Final residual = 3.90971e-05, No Iterations 4
ExecutionTime = 1.32 s  ClockTime = 1 s

Time = 97

smoothSolver:  Solving for Ux, Initial residual = 0.00220107, Final residual = 0.000181865, No Iterations 2
smoothSolver:  Solving for Uy, Initial residual = 0.00181954, Final residual = 0.000144446, No Iterations 2
GAMG:  Solving for p, Initial residual = 0.0250772, Final residual = 0.00193083, No Iterations 4
time step continuity errors : sum local = 2.17915e-05, global = 3.95286e-16, cumulative = -5.57757e-15
smoothSolver:  Solving for nuTilda, Initial residual = 0.000902831, Final residual = 3.87538e-05, No Iterations 4
ExecutionTime = 1.33 s  ClockTime = 1 s

Time = 98

smoothSolver:  Solving for Ux, Initial residual = 0.00211374, Final residual = 0.000177661, No Iterations 2
smoothSolver:  Solving for Uy, Initial residual = 0.00177317, Final residual = 0.000139424, No Iterations 2
GAMG:  Solving for p, Initial residual = 0.0238475, Final residual = 0.00196144, No Iterations 3
time step continuity errors : sum local = 2.20384e-05, global = -3.0074e-16, cumulative = -5.87831e-15
smoothSolver:  Solving for nuTilda, Initial residual = 0.0008904, Final residual = 3.84003e-05, No Iterations 4
ExecutionTime = 1.34 s  ClockTime = 1 s

Time = 99

smoothSolver:  Solving for Ux, Initial residual = 0.00203163, Final residual = 0.000173072, No Iterations 2
smoothSolver:  Solving for Uy, Initial residual = 0.0017567, Final residual = 0.000136562, No Iterations 2
GAMG:  Solving for p, Initial residual = 0.0225504, Final residual = 0.00214861, No Iterations 3
time step continuity errors : sum local = 2.46931e-05, global = 6.48757e-16, cumulative = -5.22955e-15
smoothSolver:  Solving for nuTilda, Initial residual = 0.000878752, Final residual = 3.80588e-05, No Iterations 4
ExecutionTime = 1.36 s  ClockTime = 1 s

Time = 100

smoothSolver:  Solving for Ux, Initial residual = 0.00195127, Final residual = 0.000168819, No Iterations 2
smoothSolver:  Solving for Uy, Initial residual = 0.00173716, Final residual = 0.000133033, No Iterations 2
GAMG:  Solving for p, Initial residual = 0.020922, Final residual = 0.00172248, No Iterations 3
time step continuity errors : sum local = 1.9421e-05, global = 2.72629e-16, cumulative = -4.95692e-15
smoothSolver:  Solving for nuTilda, Initial residual = 0.000867947, Final residual = 3.77076e-05, No Iterations 4
ExecutionTime = 1.4 s  ClockTime = 1 s

Time = 101

smoothSolver:  Solving for Ux, Initial residual = 0.00186513, Final residual = 0.000164439, No Iterations 2
smoothSolver:  Solving for Uy, Initial residual = 0.00168619, Final residual = 0.000127669, No Iterations 2
GAMG:  Solving for p, Initial residual = 0.0208089, Final residual = 0.00129058, No Iterations 5
time step continuity errors : sum local = 1.46503e-05, global = 2.75578e-16, cumulative = -4.68135e-15
smoothSolver:  Solving for nuTilda, Initial residual = 0.000857207, Final residual = 3.73564e-05, No Iterations 4
ExecutionTime = 1.42 s  ClockTime = 1 s

Time = 102

smoothSolver:  Solving for Ux, Initial residual = 0.00179924, Final residual = 0.000160567, No Iterations 2
smoothSolver:  Solving for Uy, Initial residual = 0.00160948, Final residual = 0.000119858, No Iterations 2
GAMG:  Solving for p, Initial residual = 0.0198761, Final residual = 0.00119749, No Iterations 5
time step continuity errors : sum local = 1.35132e-05, global = 4.98458e-16, cumulative = -4.18289e-15
smoothSolver:  Solving for nuTilda, Initial residual = 0.000846953, Final residual = 3.69982e-05, No Iterations 4
ExecutionTime = 1.43 s  ClockTime = 1 s

Time = 103

smoothSolver:  Solving for Ux, Initial residual = 0.00174287, Final residual = 0.000156163, No Iterations 2
smoothSolver:  Solving for Uy, Initial residual = 0.00152256, Final residual = 0.000111897, No Iterations 2
GAMG:  Solving for p, Initial residual = 0.0183786, Final residual = 0.000864727, No Iterations 4
time step continuity errors : sum local = 9.74037e-06, global = -2.09854e-16, cumulative = -4.39274e-15
smoothSolver:  Solving for nuTilda, Initial residual = 0.000837221, Final residual = 3.66573e-05, No Iterations 4
ExecutionTime = 1.45 s  ClockTime = 1 s

Time = 104

smoothSolver:  Solving for Ux, Initial residual = 0.00170195, Final residual = 0.000151714, No Iterations 2
smoothSolver:  Solving for Uy, Initial residual = 0.00144626, Final residual = 0.000105034, No Iterations 2
GAMG:  Solving for p, Initial residual = 0.0169964, Final residual = 0.00071244, No Iterations 4
time step continuity errors : sum local = 8.05207e-06, global = -1.16178e-16, cumulative = -4.50892e-15
smoothSolver:  Solving for nuTilda, Initial residual = 0.000828048, Final residual = 3.63031e-05, No Iterations 4
ExecutionTime = 1.46 s  ClockTime = 1 s

Time = 105

smoothSolver:  Solving for Ux, Initial residual = 0.00166773, Final residual = 0.000147804, No Iterations 2
smoothSolver:  Solving for Uy, Initial residual = 0.00138398, Final residual = 9.91183e-05, No Iterations 2
GAMG:  Solving for p, Initial residual = 0.0161188, Final residual = 0.00137987, No Iterations 3
time step continuity errors : sum local = 1.55076e-05, global = -9.12244e-17, cumulative = -4.60014e-15
smoothSolver:  Solving for nuTilda, Initial residual = 0.00081888, Final residual = 3.59506e-05, No Iterations 4
ExecutionTime = 1.47 s  ClockTime = 1 s

Time = 106

smoothSolver:  Solving for Ux, Initial residual = 0.00162438, Final residual = 0.00014422, No Iterations 2
smoothSolver:  Solving for Uy, Initial residual = 0.00134083, Final residual = 9.42349e-05, No Iterations 2
GAMG:  Solving for p, Initial residual = 0.0151285, Final residual = 0.00126418, No Iterations 3
time step continuity errors : sum local = 1.42008e-05, global = -8.43521e-16, cumulative = -5.44366e-15
smoothSolver:  Solving for nuTilda, Initial residual = 0.000809853, Final residual = 3.55867e-05, No Iterations 4
ExecutionTime = 1.48 s  ClockTime = 2 s

Time = 107

smoothSolver:  Solving for Ux, Initial residual = 0.00157675, Final residual = 0.000140773, No Iterations 2
smoothSolver:  Solving for Uy, Initial residual = 0.00132358, Final residual = 9.01499e-05, No Iterations 2
GAMG:  Solving for p, Initial residual = 0.0146022, Final residual = 0.00140005, No Iterations 3
time step continuity errors : sum local = 1.60673e-05, global = -5.77142e-17, cumulative = -5.50138e-15
smoothSolver:  Solving for nuTilda, Initial residual = 0.000801102, Final residual = 3.52386e-05, No Iterations 4
ExecutionTime = 1.5 s  ClockTime = 2 s

Time = 108

smoothSolver:  Solving for Ux, Initial residual = 0.00152839, Final residual = 0.00013741, No Iterations 2
smoothSolver:  Solving for Uy, Initial residual = 0.00131498, Final residual = 8.68132e-05, No Iterations 2
GAMG:  Solving for p, Initial residual = 0.0139164, Final residual = 0.00113815, No Iterations 3
time step continuity errors : sum local = 1.2827e-05, global = -2.95535e-16, cumulative = -5.79691e-15
smoothSolver:  Solving for nuTilda, Initial residual = 0.000792967, Final residual = 3.48806e-05, No Iterations 4
ExecutionTime = 1.51 s  ClockTime = 2 s

Time = 109

smoothSolver:  Solving for Ux, Initial residual = 0.00148773, Final residual = 0.000134007, No Iterations 2
smoothSolver:  Solving for Uy, Initial residual = 0.0012862, Final residual = 8.37193e-05, No Iterations 2
GAMG:  Solving for p, Initial residual = 0.013421, Final residual = 0.00129949, No Iterations 3
time step continuity errors : sum local = 1.46218e-05, global = 4.17934e-16, cumulative = -5.37898e-15
smoothSolver:  Solving for nuTilda, Initial residual = 0.000784952, Final residual = 3.45261e-05, No Iterations 4
ExecutionTime = 1.52 s  ClockTime = 2 s

Time = 110

smoothSolver:  Solving for Ux, Initial residual = 0.00146619, Final residual = 0.000130856, No Iterations 2
smoothSolver:  Solving for Uy, Initial residual = 0.0012386, Final residual = 7.98333e-05, No Iterations 2
GAMG:  Solving for p, Initial residual = 0.0126731, Final residual = 0.000721921, No Iterations 5
time step continuity errors : sum local = 8.16839e-06, global = -1.21968e-15, cumulative = -6.59866e-15
smoothSolver:  Solving for nuTilda, Initial residual = 0.000777217, Final residual = 3.41652e-05, No Iterations 4
ExecutionTime = 1.54 s  ClockTime = 2 s

Time = 111

smoothSolver:  Solving for Ux, Initial residual = 0.00146308, Final residual = 0.000127915, No Iterations 2
smoothSolver:  Solving for Uy, Initial residual = 0.00118341, Final residual = 7.50803e-05, No Iterations 2
GAMG:  Solving for p, Initial residual = 0.0115999, Final residual = 0.000549894, No Iterations 4
time step continuity errors : sum local = 6.20381e-06, global = 1.39119e-16, cumulative = -6.45954e-15
smoothSolver:  Solving for nuTilda, Initial residual = 0.000769559, Final residual = 3.38144e-05, No Iterations 4
ExecutionTime = 1.55 s  ClockTime = 2 s

Time = 112

smoothSolver:  Solving for Ux, Initial residual = 0.00144967, Final residual = 0.000124939, No Iterations 2
smoothSolver:  Solving for Uy, Initial residual = 0.0011464, Final residual = 7.10647e-05, No Iterations 2
GAMG:  Solving for p, Initial residual = 0.0106977, Final residual = 0.000469844, No Iterations 4
time step continuity errors : sum local = 5.31527e-06, global = 1.30349e-16, cumulative = -6.32919e-15
smoothSolver:  Solving for nuTilda, Initial residual = 0.000762618, Final residual = 3.34568e-05, No Iterations 4
ExecutionTime = 1.56 s  ClockTime = 2 s

Time = 113

smoothSolver:  Solving for Ux, Initial residual = 0.00141886, Final residual = 0.00012206, No Iterations 2
smoothSolver:  Solving for Uy, Initial residual = 0.00113568, Final residual = 6.91359e-05, No Iterations 2
GAMG:  Solving for p, Initial residual = 0.010193, Final residual = 0.000931274, No Iterations 3
time step continuity errors : sum local = 1.04758e-05, global = 3.82794e-16, cumulative = -5.94639e-15
smoothSolver:  Solving for nuTilda, Initial residual = 0.000755588, Final residual = 3.30963e-05, No Iterations 4
ExecutionTime = 1.58 s  ClockTime = 2 s

Time = 114

smoothSolver:  Solving for Ux, Initial residual = 0.00136807, Final residual = 0.000119459, No Iterations 2
smoothSolver:  Solving for Uy, Initial residual = 0.00112834, Final residual = 6.80181e-05, No Iterations 2
GAMG:  Solving for p, Initial residual = 0.00966359, Final residual = 0.000955524, No Iterations 3
time step continuity errors : sum local = 1.07408e-05, global = -9.49723e-17, cumulative = -6.04137e-15
smoothSolver:  Solving for nuTilda, Initial residual = 0.000748911, Final residual = 3.27354e-05, No Iterations 4
ExecutionTime = 1.58 s  ClockTime = 2 s

Time = 115

smoothSolver:  Solving for Ux, Initial residual = 0.001307, Final residual = 0.000117072, No Iterations 2
smoothSolver:  Solving for Uy, Initial residual = 0.00111053, Final residual = 6.63607e-05, No Iterations 2
GAMG:  Solving for p, Initial residual = 0.00921854, Final residual = 0.00049455, No Iterations 4
time step continuity errors : sum local = 5.58235e-06, global = -7.3983e-16, cumulative = -6.7812e-15
smoothSolver:  Solving for nuTilda, Initial residual = 0.000742153, Final residual = 3.23812e-05, No Iterations 4
ExecutionTime = 1.6 s  ClockTime = 2 s

Time = 116

smoothSolver:  Solving for Ux, Initial residual = 0.00124801, Final residual = 0.000115067, No Iterations 2
smoothSolver:  Solving for Uy, Initial residual = 0.00106748, Final residual = 6.30464e-05, No Iterations 2
GAMG:  Solving for p, Initial residual = 0.00839838, Final residual = 0.000443839, No Iterations 4
time step continuity errors : sum local = 5.01349e-06, global = -2.0251e-16, cumulative = -6.98371e-15
smoothSolver:  Solving for nuTilda, Initial residual = 0.00073585, Final residual = 3.20181e-05, No Iterations 4
ExecutionTime = 1.61 s  ClockTime = 2 s

Time = 117

smoothSolver:  Solving for Ux, Initial residual = 0.00120261, Final residual = 0.000113137, No Iterations 2
smoothSolver:  Solving for Uy, Initial residual = 0.00102186, Final residual = 6.0062e-05, No Iterations 2
GAMG:  Solving for p, Initial residual = 0.00780291, Final residual = 0.000329173, No Iterations 4
time step continuity errors : sum local = 3.723e-06, global = 4.19969e-16, cumulative = -6.56374e-15
smoothSolver:  Solving for nuTilda, Initial residual = 0.000729444, Final residual = 3.16559e-05, No Iterations 4
ExecutionTime = 1.63 s  ClockTime = 2 s

Time = 118

smoothSolver:  Solving for Ux, Initial residual = 0.00117233, Final residual = 0.000111299, No Iterations 2
smoothSolver:  Solving for Uy, Initial residual = 0.000991096, Final residual = 5.82917e-05, No Iterations 2
GAMG:  Solving for p, Initial residual = 0.00734908, Final residual = 0.000703221, No Iterations 3
time step continuity errors : sum local = 7.90809e-06, global = -5.01331e-16, cumulative = -7.06507e-15
smoothSolver:  Solving for nuTilda, Initial residual = 0.000723201, Final residual = 3.12896e-05, No Iterations 4
ExecutionTime = 1.64 s  ClockTime = 2 s

Time = 119

smoothSolver:  Solving for Ux, Initial residual = 0.00114735, Final residual = 0.000109453, No Iterations 2
smoothSolver:  Solving for Uy, Initial residual = 0.000983957, Final residual = 5.80112e-05, No Iterations 2
GAMG:  Solving for p, Initial residual = 0.00708444, Final residual = 0.000320704, No Iterations 4
time step continuity errors : sum local = 3.62532e-06, global = -8.55398e-16, cumulative = -7.92047e-15
smoothSolver:  Solving for nuTilda, Initial residual = 0.000716689, Final residual = 3.09302e-05, No Iterations 4
ExecutionTime = 1.66 s  ClockTime = 2 s

Time = 120

smoothSolver:  Solving for Ux, Initial residual = 0.00112657, Final residual = 0.000107683, No Iterations 2
smoothSolver:  Solving for Uy, Initial residual = 0.000993874, Final residual = 5.86081e-05, No Iterations 2
GAMG:  Solving for p, Initial residual = 0.0065776, Final residual = 0.000268415, No Iterations 4
time step continuity errors : sum local = 3.04601e-06, global = -7.98036e-16, cumulative = -8.7185e-15
smoothSolver:  Solving for nuTilda, Initial residual = 0.000710567, Final residual = 3.05695e-05, No Iterations 4
ExecutionTime = 1.67 s  ClockTime = 2 s

Time = 121

smoothSolver:  Solving for Ux, Initial residual = 0.00109695, Final residual = 0.000106075, No Iterations 2
smoothSolver:  Solving for Uy, Initial residual = 0.000994918, Final residual = 5.84629e-05, No Iterations 2
GAMG:  Solving for p, Initial residual = 0.00623579, Final residual = 0.000249589, No Iterations 4
time step continuity errors : sum local = 2.8289e-06, global = -4.44551e-16, cumulative = -9.16305e-15
smoothSolver:  Solving for nuTilda, Initial residual = 0.00070379, Final residual = 3.02014e-05, No Iterations 4
ExecutionTime = 1.68 s  ClockTime = 2 s

Time = 122

smoothSolver:  Solving for Ux, Initial residual = 0.00105835, Final residual = 0.000104756, No Iterations 2
smoothSolver:  Solving for Uy, Initial residual = 0.000975537, Final residual = 5.68703e-05, No Iterations 2
GAMG:  Solving for p, Initial residual = 0.00586841, Final residual = 0.000320066, No Iterations 4
time step continuity errors : sum local = 3.62226e-06, global = -3.70882e-16, cumulative = -9.53394e-15
smoothSolver:  Solving for nuTilda, Initial residual = 0.000696791, Final residual = 2.98274e-05, No Iterations 4
ExecutionTime = 1.7 s  ClockTime = 2 s

Time = 123

smoothSolver:  Solving for Ux, Initial residual = 0.00101608, Final residual = 1.91362e-05, No Iterations 4
smoothSolver:  Solving for Uy, Initial residual = 0.000933382, Final residual = 5.40087e-05, No Iterations 2
GAMG:  Solving for p, Initial residual = 0.00563745, Final residual = 0.000364711, No Iterations 4
time step continuity errors : sum local = 4.11645e-06, global = -3.86727e-16, cumulative = -9.92066e-15
smoothSolver:  Solving for nuTilda, Initial residual = 0.000689511, Final residual = 2.94623e-05, No Iterations 4
ExecutionTime = 1.71 s  ClockTime = 2 s

Time = 124

smoothSolver:  Solving for Ux, Initial residual = 0.000975817, Final residual = 1.8875e-05, No Iterations 4
smoothSolver:  Solving for Uy, Initial residual = 0.000882662, Final residual = 5.14247e-05, No Iterations 2
GAMG:  Solving for p, Initial residual = 0.00524183, Final residual = 0.000304875, No Iterations 4
time step continuity errors : sum local = 3.44811e-06, global = -6.22392e-16, cumulative = -1.05431e-14
smoothSolver:  Solving for nuTilda, Initial residual = 0.000682265, Final residual = 2.90957e-05, No Iterations 4
ExecutionTime = 1.72 s  ClockTime = 2 s

Time = 125

smoothSolver:  Solving for Ux, Initial residual = 0.000944733, Final residual = 1.85989e-05, No Iterations 4
smoothSolver:  Solving for Uy, Initial residual = 0.0008304, Final residual = 4.90509e-05, No Iterations 2
GAMG:  Solving for p, Initial residual = 0.00501826, Final residual = 0.000251989, No Iterations 4
time step continuity errors : sum local = 2.84631e-06, global = -7.96817e-16, cumulative = -1.13399e-14
smoothSolver:  Solving for nuTilda, Initial residual = 0.000674344, Final residual = 2.8724e-05, No Iterations 4
ExecutionTime = 1.73 s  ClockTime = 2 s

Time = 126

smoothSolver:  Solving for Ux, Initial residual = 0.000922815, Final residual = 1.83345e-05, No Iterations 4
smoothSolver:  Solving for Uy, Initial residual = 0.000790339, Final residual = 4.68406e-05, No Iterations 2
GAMG:  Solving for p, Initial residual = 0.00470555, Final residual = 0.000449096, No Iterations 3
time step continuity errors : sum local = 5.05553e-06, global = -9.20117e-16, cumulative = -1.226e-14
smoothSolver:  Solving for nuTilda, Initial residual = 0.000666227, Final residual = 2.83462e-05, No Iterations 4
ExecutionTime = 1.75 s  ClockTime = 2 s

Time = 127

smoothSolver:  Solving for Ux, Initial residual = 0.000900675, Final residual = 1.81034e-05, No Iterations 4
smoothSolver:  Solving for Uy, Initial residual = 0.000767507, Final residual = 4.50844e-05, No Iterations 2
GAMG:  Solving for p, Initial residual = 0.00455775, Final residual = 0.000180079, No Iterations 4
time step continuity errors : sum local = 2.04054e-06, global = 3.57326e-18, cumulative = -1.22564e-14
smoothSolver:  Solving for nuTilda, Initial residual = 0.000657481, Final residual = 2.79709e-05, No Iterations 4
ExecutionTime = 1.76 s  ClockTime = 2 s

Time = 128

smoothSolver:  Solving for Ux, Initial residual = 0.000884682, Final residual = 1.7899e-05, No Iterations 4
smoothSolver:  Solving for Uy, Initial residual = 0.000751615, Final residual = 4.37874e-05, No Iterations 2
GAMG:  Solving for p, Initial residual = 0.00423242, Final residual = 0.000296972, No Iterations 4
time step continuity errors : sum local = 3.36952e-06, global = -1.15606e-15, cumulative = -1.34125e-14
smoothSolver:  Solving for nuTilda, Initial residual = 0.00064863, Final residual = 2.75963e-05, No Iterations 4
ExecutionTime = 1.77 s  ClockTime = 2 s

Time = 129

smoothSolver:  Solving for Ux, Initial residual = 0.000867912, Final residual = 1.7694e-05, No Iterations 4
smoothSolver:  Solving for Uy, Initial residual = 0.000738344, Final residual = 4.28764e-05, No Iterations 2
GAMG:  Solving for p, Initial residual = 0.00402768, Final residual = 0.000182236, No Iterations 4
time step continuity errors : sum local = 2.06514e-06, global = 1.16727e-15, cumulative = -1.22452e-14
smoothSolver:  Solving for nuTilda, Initial residual = 0.000639435, Final residual = 2.72236e-05, No Iterations 4
ExecutionTime = 1.79 s  ClockTime = 2 s

Time = 130

smoothSolver:  Solving for Ux, Initial residual = 0.000848344, Final residual = 1.74736e-05, No Iterations 4
smoothSolver:  Solving for Uy, Initial residual = 0.000722039, Final residual = 4.18236e-05, No Iterations 2
GAMG:  Solving for p, Initial residual = 0.00378914, Final residual = 0.000323148, No Iterations 4
time step continuity errors : sum local = 3.66442e-06, global = 7.38622e-16, cumulative = -1.15066e-14
smoothSolver:  Solving for nuTilda, Initial residual = 0.000630099, Final residual = 2.68433e-05, No Iterations 4
ExecutionTime = 1.81 s  ClockTime = 2 s

Time = 131

smoothSolver:  Solving for Ux, Initial residual = 0.000826895, Final residual = 1.72524e-05, No Iterations 4
smoothSolver:  Solving for Uy, Initial residual = 0.000696347, Final residual = 4.03568e-05, No Iterations 2
GAMG:  Solving for p, Initial residual = 0.00374674, Final residual = 0.000233403, No Iterations 4
time step continuity errors : sum local = 2.63756e-06, global = -5.00158e-16, cumulative = -1.20067e-14
smoothSolver:  Solving for nuTilda, Initial residual = 0.000620264, Final residual = 2.64673e-05, No Iterations 4
ExecutionTime = 1.81 s  ClockTime = 2 s

Time = 132

smoothSolver:  Solving for Ux, Initial residual = 0.000807511, Final residual = 1.70281e-05, No Iterations 4
smoothSolver:  Solving for Uy, Initial residual = 0.000660667, Final residual = 3.83933e-05, No Iterations 2
GAMG:  Solving for p, Initial residual = 0.00360611, Final residual = 0.000237913, No Iterations 4
time step continuity errors : sum local = 2.69438e-06, global = 3.11152e-16, cumulative = -1.16956e-14
smoothSolver:  Solving for nuTilda, Initial residual = 0.000610541, Final residual = 2.60941e-05, No Iterations 4
ExecutionTime = 1.83 s  ClockTime = 2 s

Time = 133

smoothSolver:  Solving for Ux, Initial residual = 0.000792113, Final residual = 1.68056e-05, No Iterations 4
smoothSolver:  Solving for Uy, Initial residual = 0.000622253, Final residual = 3.65728e-05, No Iterations 2
GAMG:  Solving for p, Initial residual = 0.0034075, Final residual = 0.000219375, No Iterations 4
time step continuity errors : sum local = 2.48041e-06, global = -5.87172e-17, cumulative = -1.17543e-14
smoothSolver:  Solving for nuTilda, Initial residual = 0.000600818, Final residual = 2.57238e-05, No Iterations 4
ExecutionTime = 1.84 s  ClockTime = 2 s

Time = 134

[...]

Time = 331

smoothSolver:  Solving for Ux, Initial residual = 2.69684e-06, Final residual = 2.14848e-07, No Iterations 2
smoothSolver:  Solving for Uy, Initial residual = 3.00734e-06, Final residual = 2.13585e-07, No Iterations 2
GAMG:  Solving for p, Initial residual = 0.000392147, Final residual = 1.74431e-05, No Iterations 2
time step continuity errors : sum local = 2.1062e-07, global = -4.69145e-16, cumulative = -2.7822e-15
smoothSolver:  Solving for nuTilda, Initial residual = 6.24378e-07, Final residual = 4.44665e-08, No Iterations 2
ExecutionTime = 4.49 s  ClockTime = 5 s

Time = 332

smoothSolver:  Solving for Ux, Initial residual = 2.63321e-06, Final residual = 2.10128e-07, No Iterations 2
smoothSolver:  Solving for Uy, Initial residual = 3.00733e-06, Final residual = 2.15976e-07, No Iterations 2
GAMG:  Solving for p, Initial residual = 0.000389783, Final residual = 1.7419e-05, No Iterations 2
time step continuity errors : sum local = 2.109e-07, global = 4.00798e-16, cumulative = -2.38141e-15
smoothSolver:  Solving for nuTilda, Initial residual = 7.16214e-07, Final residual = 4.39017e-08, No Iterations 2
ExecutionTime = 4.5 s  ClockTime = 5 s

Time = 333

smoothSolver:  Solving for Ux, Initial residual = 2.58454e-06, Final residual = 2.07417e-07, No Iterations 2
smoothSolver:  Solving for Uy, Initial residual = 2.92804e-06, Final residual = 2.10833e-07, No Iterations 2
GAMG:  Solving for p, Initial residual = 0.000392019, Final residual = 1.76541e-05, No Iterations 2
time step continuity errors : sum local = 2.13054e-07, global = 1.11129e-17, cumulative = -2.37029e-15
smoothSolver:  Solving for nuTilda, Initial residual = 6.07395e-07, Final residual = 4.29681e-08, No Iterations 2
ExecutionTime = 4.51 s  ClockTime = 5 s

Time = 334

smoothSolver:  Solving for Ux, Initial residual = 2.52735e-06, Final residual = 2.02812e-07, No Iterations 2
smoothSolver:  Solving for Uy, Initial residual = 2.9266e-06, Final residual = 2.13162e-07, No Iterations 2
GAMG:  Solving for p, Initial residual = 0.000390056, Final residual = 1.7678e-05, No Iterations 2
time step continuity errors : sum local = 2.13772e-07, global = -2.3253e-16, cumulative = -2.60282e-15
smoothSolver:  Solving for nuTilda, Initial residual = 6.99241e-07, Final residual = 4.24324e-08, No Iterations 2
ExecutionTime = 4.53 s  ClockTime = 5 s

Time = 335

smoothSolver:  Solving for Ux, Initial residual = 2.48812e-06, Final residual = 2.00372e-07, No Iterations 2
smoothSolver:  Solving for Uy, Initial residual = 2.85378e-06, Final residual = 2.08165e-07, No Iterations 2
GAMG:  Solving for p, Initial residual = 0.000391808, Final residual = 1.7807e-05, No Iterations 2
time step continuity errors : sum local = 2.14836e-07, global = 6.91355e-16, cumulative = -1.91147e-15
smoothSolver:  Solving for nuTilda, Initial residual = 5.9044e-07, Final residual = 4.15267e-08, No Iterations 2
ExecutionTime = 4.54 s  ClockTime = 5 s

Time = 336

smoothSolver:  Solving for Ux, Initial residual = 2.43347e-06, Final residual = 1.95838e-07, No Iterations 2
smoothSolver:  Solving for Uy, Initial residual = 2.86505e-06, Final residual = 2.11092e-07, No Iterations 2
GAMG:  Solving for p, Initial residual = 0.000389942, Final residual = 1.76159e-05, No Iterations 2
time step continuity errors : sum local = 2.13016e-07, global = -4.61763e-17, cumulative = -1.95764e-15
smoothSolver:  Solving for nuTilda, Initial residual = 6.82346e-07, Final residual = 4.10131e-08, No Iterations 2
ExecutionTime = 4.55 s  ClockTime = 5 s

Time = 337

smoothSolver:  Solving for Ux, Initial residual = 2.39959e-06, Final residual = 1.93453e-07, No Iterations 2
smoothSolver:  Solving for Uy, Initial residual = 2.81007e-06, Final residual = 2.06614e-07, No Iterations 2
GAMG:  Solving for p, Initial residual = 0.000391294, Final residual = 1.75708e-05, No Iterations 2
time step continuity errors : sum local = 2.12216e-07, global = -2.89624e-16, cumulative = -2.24727e-15
smoothSolver:  Solving for nuTilda, Initial residual = 5.73643e-07, Final residual = 4.0136e-08, No Iterations 2
ExecutionTime = 4.56 s  ClockTime = 5 s

Time = 338

smoothSolver:  Solving for Ux, Initial residual = 2.34701e-06, Final residual = 1.89098e-07, No Iterations 2
smoothSolver:  Solving for Uy, Initial residual = 2.84374e-06, Final residual = 2.10424e-07, No Iterations 2
GAMG:  Solving for p, Initial residual = 0.000389226, Final residual = 1.70089e-05, No Iterations 2
time step continuity errors : sum local = 2.06124e-07, global = 1.83822e-16, cumulative = -2.06345e-15
smoothSolver:  Solving for nuTilda, Initial residual = 6.65615e-07, Final residual = 3.965e-08, No Iterations 2
ExecutionTime = 4.57 s  ClockTime = 5 s

Time = 339

smoothSolver:  Solving for Ux, Initial residual = 2.3154e-06, Final residual = 1.86655e-07, No Iterations 2
smoothSolver:  Solving for Uy, Initial residual = 2.7985e-06, Final residual = 2.06112e-07, No Iterations 2
GAMG:  Solving for p, Initial residual = 0.000390603, Final residual = 1.67177e-05, No Iterations 2
time step continuity errors : sum local = 2.02619e-07, global = 1.44575e-17, cumulative = -2.04899e-15
smoothSolver:  Solving for nuTilda, Initial residual = 5.57051e-07, Final residual = 3.8806e-08, No Iterations 2
ExecutionTime = 4.59 s  ClockTime = 5 s

Time = 340

smoothSolver:  Solving for Ux, Initial residual = 2.26497e-06, Final residual = 1.82701e-07, No Iterations 2
smoothSolver:  Solving for Uy, Initial residual = 2.83256e-06, Final residual = 2.09821e-07, No Iterations 2
GAMG:  Solving for p, Initial residual = 0.000388376, Final residual = 1.60977e-05, No Iterations 2
time step continuity errors : sum local = 1.95813e-07, global = 1.54173e-16, cumulative = -1.89482e-15
smoothSolver:  Solving for nuTilda, Initial residual = 6.49238e-07, Final residual = 3.83468e-08, No Iterations 2
ExecutionTime = 4.6 s  ClockTime = 5 s

Time = 341

smoothSolver:  Solving for Ux, Initial residual = 2.23316e-06, Final residual = 1.80163e-07, No Iterations 2
smoothSolver:  Solving for Uy, Initial residual = 2.78284e-06, Final residual = 2.04991e-07, No Iterations 2
GAMG:  Solving for p, Initial residual = 0.000389889, Final residual = 1.59403e-05, No Iterations 2
time step continuity errors : sum local = 1.93865e-07, global = -4.69259e-16, cumulative = -2.36407e-15
smoothSolver:  Solving for nuTilda, Initial residual = 5.40965e-07, Final residual = 3.75328e-08, No Iterations 2
ExecutionTime = 4.61 s  ClockTime = 5 s

Time = 342

smoothSolver:  Solving for Ux, Initial residual = 2.18443e-06, Final residual = 1.76723e-07, No Iterations 2
smoothSolver:  Solving for Uy, Initial residual = 2.80996e-06, Final residual = 2.08199e-07, No Iterations 2
GAMG:  Solving for p, Initial residual = 0.000387638, Final residual = 1.55406e-05, No Iterations 2
time step continuity errors : sum local = 1.89508e-07, global = 3.12867e-16, cumulative = -2.05121e-15
smoothSolver:  Solving for nuTilda, Initial residual = 6.33458e-07, Final residual = 3.71018e-08, No Iterations 2
ExecutionTime = 4.62 s  ClockTime = 5 s

Time = 343

smoothSolver:  Solving for Ux, Initial residual = 2.15349e-06, Final residual = 1.74238e-07, No Iterations 2
smoothSolver:  Solving for Uy, Initial residual = 2.75647e-06, Final residual = 2.031e-07, No Iterations 2
GAMG:  Solving for p, Initial residual = 0.000389544, Final residual = 1.57663e-05, No Iterations 2
time step continuity errors : sum local = 1.9192e-07, global = -4.54775e-16, cumulative = -2.50598e-15
smoothSolver:  Solving for nuTilda, Initial residual = 5.25554e-07, Final residual = 3.63209e-08, No Iterations 2
ExecutionTime = 4.63 s  ClockTime = 5 s

Time = 344

smoothSolver:  Solving for Ux, Initial residual = 2.10616e-06, Final residual = 1.71021e-07, No Iterations 2
smoothSolver:  Solving for Uy, Initial residual = 2.7786e-06, Final residual = 2.06084e-07, No Iterations 2
GAMG:  Solving for p, Initial residual = 0.000387439, Final residual = 1.5674e-05, No Iterations 2
time step continuity errors : sum local = 1.90997e-07, global = 5.37608e-17, cumulative = -2.45222e-15
smoothSolver:  Solving for nuTilda, Initial residual = 6.18387e-07, Final residual = 3.59194e-08, No Iterations 2
ExecutionTime = 4.64 s  ClockTime = 5 s

Time = 345

smoothSolver:  Solving for Ux, Initial residual = 2.08006e-06, Final residual = 1.69071e-07, No Iterations 2
smoothSolver:  Solving for Uy, Initial residual = 2.72563e-06, Final residual = 2.01432e-07, No Iterations 2
GAMG:  Solving for p, Initial residual = 0.000389594, Final residual = 1.61026e-05, No Iterations 2
time step continuity errors : sum local = 1.95735e-07, global = -5.06583e-16, cumulative = -2.95881e-15
smoothSolver:  Solving for nuTilda, Initial residual = 5.10772e-07, Final residual = 3.51672e-08, No Iterations 2
ExecutionTime = 4.66 s  ClockTime = 5 s

Time = 346

smoothSolver:  Solving for Ux, Initial residual = 2.03763e-06, Final residual = 1.65816e-07, No Iterations 2
smoothSolver:  Solving for Uy, Initial residual = 2.74954e-06, Final residual = 2.04567e-07, No Iterations 2
GAMG:  Solving for p, Initial residual = 0.000387592, Final residual = 1.59831e-05, No Iterations 2
time step continuity errors : sum local = 1.94468e-07, global = -1.67864e-17, cumulative = -2.97559e-15
smoothSolver:  Solving for nuTilda, Initial residual = 6.03899e-07, Final residual = 3.47883e-08, No Iterations 2
ExecutionTime = 4.67 s  ClockTime = 5 s

Time = 347

smoothSolver:  Solving for Ux, Initial residual = 2.01704e-06, Final residual = 1.64423e-07, No Iterations 2
smoothSolver:  Solving for Uy, Initial residual = 2.70525e-06, Final residual = 2.00806e-07, No Iterations 2
GAMG:  Solving for p, Initial residual = 0.000389682, Final residual = 1.63031e-05, No Iterations 2
time step continuity errors : sum local = 1.98015e-07, global = -9.57973e-16, cumulative = -3.93356e-15
smoothSolver:  Solving for nuTilda, Initial residual = 4.96575e-07, Final residual = 3.40473e-08, No Iterations 2
ExecutionTime = 4.68 s  ClockTime = 5 s

Time = 348

smoothSolver:  Solving for Ux, Initial residual = 1.9806e-06, Final residual = 1.6128e-07, No Iterations 2
smoothSolver:  Solving for Uy, Initial residual = 2.73999e-06, Final residual = 2.0445e-07, No Iterations 2
GAMG:  Solving for p, Initial residual = 0.000387565, Final residual = 1.5942e-05, No Iterations 2
time step continuity errors : sum local = 1.93989e-07, global = 3.21204e-17, cumulative = -3.90144e-15
smoothSolver:  Solving for nuTilda, Initial residual = 5.89965e-07, Final residual = 3.3673e-08, No Iterations 2
ExecutionTime = 4.69 s  ClockTime = 5 s

Time = 349

smoothSolver:  Solving for Ux, Initial residual = 1.96072e-06, Final residual = 1.59933e-07, No Iterations 2
smoothSolver:  Solving for Uy, Initial residual = 2.7057e-06, Final residual = 2.01105e-07, No Iterations 2
GAMG:  Solving for p, Initial residual = 0.000389497, Final residual = 1.59293e-05, No Iterations 2
time step continuity errors : sum local = 1.9381e-07, global = 9.30207e-16, cumulative = -2.97124e-15
smoothSolver:  Solving for nuTilda, Initial residual = 4.82853e-07, Final residual = 3.29342e-08, No Iterations 2
ExecutionTime = 4.71 s  ClockTime = 5 s

Time = 350

smoothSolver:  Solving for Ux, Initial residual = 1.92708e-06, Final residual = 1.57053e-07, No Iterations 2
smoothSolver:  Solving for Uy, Initial residual = 2.74635e-06, Final residual = 2.05329e-07, No Iterations 2
GAMG:  Solving for p, Initial residual = 0.000387167, Final residual = 1.55451e-05, No Iterations 2
time step continuity errors : sum local = 1.89496e-07, global = -2.28707e-16, cumulative = -3.19994e-15
smoothSolver:  Solving for nuTilda, Initial residual = 5.76476e-07, Final residual = 3.25641e-08, No Iterations 2
ExecutionTime = 4.72 s  ClockTime = 5 s

Time = 351

smoothSolver:  Solving for Ux, Initial residual = 1.90433e-06, Final residual = 1.55478e-07, No Iterations 2
smoothSolver:  Solving for Uy, Initial residual = 2.71134e-06, Final residual = 2.01713e-07, No Iterations 2
GAMG:  Solving for p, Initial residual = 0.00038895, Final residual = 1.56232e-05, No Iterations 2
time step continuity errors : sum local = 1.90367e-07, global = -7.08005e-16, cumulative = -3.90795e-15
smoothSolver:  Solving for nuTilda, Initial residual = 4.69635e-07, Final residual = 3.18339e-08, No Iterations 2
ExecutionTime = 4.73 s  ClockTime = 5 s

Time = 352

smoothSolver:  Solving for Ux, Initial residual = 1.87104e-06, Final residual = 1.52824e-07, No Iterations 2
smoothSolver:  Solving for Uy, Initial residual = 2.74391e-06, Final residual = 2.05809e-07, No Iterations 2
GAMG:  Solving for p, Initial residual = 0.000386953, Final residual = 1.55699e-05, No Iterations 2
time step continuity errors : sum local = 1.8976e-07, global = 6.0046e-16, cumulative = -3.30749e-15
smoothSolver:  Solving for nuTilda, Initial residual = 5.6355e-07, Final residual = 3.14741e-08, No Iterations 2
ExecutionTime = 4.74 s  ClockTime = 5 s

Time = 353

smoothSolver:  Solving for Ux, Initial residual = 1.84664e-06, Final residual = 1.5108e-07, No Iterations 2
smoothSolver:  Solving for Uy, Initial residual = 2.69851e-06, Final residual = 2.01545e-07, No Iterations 2
GAMG:  Solving for p, Initial residual = 0.000388876, Final residual = 1.5892e-05, No Iterations 2
time step continuity errors : sum local = 1.93415e-07, global = 5.62693e-16, cumulative = -2.7448e-15
smoothSolver:  Solving for nuTilda, Initial residual = 4.57001e-07, Final residual = 3.07571e-08, No Iterations 2
ExecutionTime = 4.75 s  ClockTime = 5 s

Time = 354

smoothSolver:  Solving for Ux, Initial residual = 1.81407e-06, Final residual = 1.48556e-07, No Iterations 2
smoothSolver:  Solving for Uy, Initial residual = 2.71461e-06, Final residual = 2.0465e-07, No Iterations 2
GAMG:  Solving for p, Initial residual = 0.000387206, Final residual = 1.60414e-05, No Iterations 2
time step continuity errors : sum local = 1.95067e-07, global = 3.77775e-16, cumulative = -2.36702e-15
smoothSolver:  Solving for nuTilda, Initial residual = 5.51269e-07, Final residual = 3.04131e-08, No Iterations 2
ExecutionTime = 4.77 s  ClockTime = 5 s

Time = 355

smoothSolver:  Solving for Ux, Initial residual = 1.79344e-06, Final residual = 1.46966e-07, No Iterations 2
smoothSolver:  Solving for Uy, Initial residual = 2.6608e-06, Final residual = 2.00214e-07, No Iterations 2
GAMG:  Solving for p, Initial residual = 0.000389007, Final residual = 1.62636e-05, No Iterations 2
time step continuity errors : sum local = 1.97624e-07, global = 2.60162e-17, cumulative = -2.34101e-15
smoothSolver:  Solving for nuTilda, Initial residual = 4.451e-07, Final residual = 2.97155e-08, No Iterations 2
ExecutionTime = 4.78 s  ClockTime = 5 s

Time = 356

smoothSolver:  Solving for Ux, Initial residual = 1.7629e-06, Final residual = 1.44452e-07, No Iterations 2
smoothSolver:  Solving for Uy, Initial residual = 2.66429e-06, Final residual = 2.02e-07, No Iterations 2
GAMG:  Solving for p, Initial residual = 0.000387202, Final residual = 1.60919e-05, No Iterations 2
time step continuity errors : sum local = 1.95629e-07, global = -8.49889e-16, cumulative = -3.19089e-15
smoothSolver:  Solving for nuTilda, Initial residual = 5.3976e-07, Final residual = 2.9393e-08, No Iterations 2
ExecutionTime = 4.79 s  ClockTime = 5 s

Time = 357

smoothSolver:  Solving for Ux, Initial residual = 1.75187e-06, Final residual = 1.43336e-07, No Iterations 2
smoothSolver:  Solving for Uy, Initial residual = 2.61587e-06, Final residual = 1.99275e-07, No Iterations 2
GAMG:  Solving for p, Initial residual = 0.000388729, Final residual = 1.59645e-05, No Iterations 2
time step continuity errors : sum local = 1.94253e-07, global = 4.23135e-16, cumulative = -2.76776e-15
smoothSolver:  Solving for nuTilda, Initial residual = 4.34027e-07, Final residual = 2.87195e-08, No Iterations 2
ExecutionTime = 4.8 s  ClockTime = 5 s

Time = 358

smoothSolver:  Solving for Ux, Initial residual = 1.72214e-06, Final residual = 1.40866e-07, No Iterations 2
smoothSolver:  Solving for Uy, Initial residual = 2.62031e-06, Final residual = 2.00436e-07, No Iterations 2
GAMG:  Solving for p, Initial residual = 0.000386665, Final residual = 1.54648e-05, No Iterations 2
time step continuity errors : sum local = 1.88551e-07, global = 5.24004e-16, cumulative = -2.24376e-15
smoothSolver:  Solving for nuTilda, Initial residual = 5.29111e-07, Final residual = 2.84172e-08, No Iterations 2
ExecutionTime = 4.81 s  ClockTime = 5 s

Time = 359

smoothSolver:  Solving for Ux, Initial residual = 1.71652e-06, Final residual = 1.40051e-07, No Iterations 2
smoothSolver:  Solving for Uy, Initial residual = 2.58144e-06, Final residual = 1.99166e-07, No Iterations 2
GAMG:  Solving for p, Initial residual = 0.000388243, Final residual = 1.52993e-05, No Iterations 2
time step continuity errors : sum local = 1.86741e-07, global = 4.44798e-16, cumulative = -1.79896e-15
smoothSolver:  Solving for nuTilda, Initial residual = 4.23746e-07, Final residual = 2.77569e-08, No Iterations 2
ExecutionTime = 4.83 s  ClockTime = 5 s

Time = 360

smoothSolver:  Solving for Ux, Initial residual = 1.69e-06, Final residual = 1.37895e-07, No Iterations 2
smoothSolver:  Solving for Uy, Initial residual = 2.59432e-06, Final residual = 2.00669e-07, No Iterations 2
GAMG:  Solving for p, Initial residual = 0.000386157, Final residual = 1.49172e-05, No Iterations 2
time step continuity errors : sum local = 1.82374e-07, global = 1.69286e-16, cumulative = -1.62967e-15
smoothSolver:  Solving for nuTilda, Initial residual = 5.19195e-07, Final residual = 2.74643e-08, No Iterations 2
ExecutionTime = 4.84 s  ClockTime = 5 s

Time = 361

smoothSolver:  Solving for Ux, Initial residual = 1.68276e-06, Final residual = 1.37006e-07, No Iterations 2
smoothSolver:  Solving for Uy, Initial residual = 2.56187e-06, Final residual = 1.99453e-07, No Iterations 2
GAMG:  Solving for p, Initial residual = 0.00038813, Final residual = 1.51857e-05, No Iterations 2
time step continuity errors : sum local = 1.85453e-07, global = 1.10681e-15, cumulative = -5.22862e-16
smoothSolver:  Solving for nuTilda, Initial residual = 4.14161e-07, Final residual = 2.68126e-08, No Iterations 2
ExecutionTime = 4.85 s  ClockTime = 5 s

Time = 362

smoothSolver:  Solving for Ux, Initial residual = 1.65858e-06, Final residual = 1.35113e-07, No Iterations 2
smoothSolver:  Solving for Uy, Initial residual = 2.58016e-06, Final residual = 2.01057e-07, No Iterations 2
GAMG:  Solving for p, Initial residual = 0.000385985, Final residual = 1.49868e-05, No Iterations 2
time step continuity errors : sum local = 1.83164e-07, global = -5.76746e-16, cumulative = -1.09961e-15
smoothSolver:  Solving for nuTilda, Initial residual = 5.09921e-07, Final residual = 2.65309e-08, No Iterations 2
ExecutionTime = 4.86 s  ClockTime = 5 s

Time = 363

smoothSolver:  Solving for Ux, Initial residual = 1.64913e-06, Final residual = 1.34213e-07, No Iterations 2
smoothSolver:  Solving for Uy, Initial residual = 2.55158e-06, Final residual = 1.99675e-07, No Iterations 2
GAMG:  Solving for p, Initial residual = 0.000388109, Final residual = 1.52055e-05, No Iterations 2
time step continuity errors : sum local = 1.85673e-07, global = -5.94292e-16, cumulative = -1.6939e-15
smoothSolver:  Solving for nuTilda, Initial residual = 4.05173e-07, Final residual = 2.58902e-08, No Iterations 2
ExecutionTime = 4.87 s  ClockTime = 5 s

Time = 364

smoothSolver:  Solving for Ux, Initial residual = 1.62773e-06, Final residual = 1.32469e-07, No Iterations 2
smoothSolver:  Solving for Uy, Initial residual = 2.56949e-06, Final residual = 2.01138e-07, No Iterations 2
GAMG:  Solving for p, Initial residual = 0.000385844, Final residual = 1.49391e-05, No Iterations 2
time step continuity errors : sum local = 1.82628e-07, global = 9.17444e-16, cumulative = -7.76455e-16
smoothSolver:  Solving for nuTilda, Initial residual = 5.01234e-07, Final residual = 2.56188e-08, No Iterations 2
ExecutionTime = 4.88 s  ClockTime = 5 s

Time = 365

