/*---------------------------------------------------------------------------*\
| =========                 |                                                 |
| \\      /  F ield         | OpenFOAM: The Open Source CFD Toolbox           |
|  \\    /   O peration     | Version:  5.x                                   |
|   \\  /    A nd           | Web:      www.OpenFOAM.org                      |
|    \\/     M anipulation  |                                                 |
\*---------------------------------------------------------------------------*/
Build  : 5.x-7f7d351b741b
Exec   : /home/suraj/OpenFOAM/OpenFOAM-5.x/platforms/linux64GccDPInt64Opt/bin/blockMesh -case baseCase_1
Date   : Jul 23 2020
Time   : 18:57:11
Host   : "suraj-MS-7B06"
PID    : 19277
I/O    : uncollated
Case   : ./baseCase_1
nProcs : 1
sigFpe : Enabling floating point exception trapping (FOAM_SIGFPE).
fileModificationChecking : Monitoring run-time modified files using timeStampMaster (fileModificationSkew 10)
allowSystemOperations : Allowing user-supplied system call operations

// * * * * * * * * * * * * * * * * * * * * * * * * * * * * * * * * * * * * * //
Create time

Deleting polyMesh directory
    "./baseCase_1/constant/polyMesh"
Creating block mesh from
    "./baseCase_1/system/blockMeshDict"
Creating block edges
Creating block faces
Creating topology blocks
Creating topology patches

Creating block mesh topology
--> FOAM Warning : 
    From function Foam::polyMesh::polyMesh(const Foam::IOobject&, const Foam::Xfer<Foam::Field<Foam::Vector<double> > >&, const cellShapeList&, const faceListList&, const wordList&, const Foam::PtrList<Foam::dictionary>&, const Foam::word&, const Foam::word&, bool)
    in file meshes/polyMesh/polyMeshFromShapeMesh.C at line 871
    Found 8 undefined faces in mesh; adding to default patch.

Check topology

	Basic statistics
		Number of internal faces : 3
		Number of boundary faces : 18
		Number of defined boundary faces : 18
		Number of undefined boundary faces : 0
	Checking patch -> block consistency

Creating block offsets
Creating merge list .

Creating polyMesh from blockMesh
Creating patches
Creating cells
Creating points with scale 1
    Block 0 cell size :
        i : 0.00957519 .. 0.027564
        j : 0.00377847 .. 0.830647
        k : 0.3 .. 0.3

    Block 1 cell size :
        i : 0.0290891 .. 0.969637
        j : 0.00412197 .. 0.906161
        k : 0.3 .. 0.3

    Block 2 cell size :
        i : 1.62553 .. 0.0488032
        j : 0.830647 .. 0.00377847
        k : 0.3 .. 0.3

    Block 3 cell size :
        i : 0.028968 .. 0.965602
        j : 0.906161 .. 0.00412197
        k : 0.3 .. 0.3

Creating merge patch pairs

Adding point and face zones
Creating attachPolyTopoChanger

Writing polyMesh
----------------
Mesh Information
----------------
  boundingBox: (-11 -12 0) (21 12 0.3)
  nPoints: 22488
  nCells: 11040
  nFaces: 44364
  nInternalFaces: 21876
----------------
Patches
----------------
  patch 0 (start: 21876 size: 230) name: inlet
  patch 1 (start: 22106 size: 96) name: outlet
  patch 2 (start: 22202 size: 82) name: walls
  patch 3 (start: 22284 size: 22080) name: frontAndBack

End

