/*---------------------------------------------------------------------------*\
| =========                 |                                                 |
| \\      /  F ield         | OpenFOAM: The Open Source CFD Toolbox           |
|  \\    /   O peration     | Version:  5.x                                   |
|   \\  /    A nd           | Web:      www.OpenFOAM.org                      |
|    \\/     M anipulation  |                                                 |
\*---------------------------------------------------------------------------*/
Build  : 5.x-7f7d351b741b
Exec   : simpleFoam
Date   : Jul 22 2020
Time   : 14:22:12
Host   : "suraj-MS-7B06"
PID    : 28629
I/O    : uncollated
Case   : /home/suraj/OpenFOAM/run/Airfold2D_full
nProcs : 1
sigFpe : Enabling floating point exception trapping (FOAM_SIGFPE).
fileModificationChecking : Monitoring run-time modified files using timeStampMaster (fileModificationSkew 10)
allowSystemOperations : Allowing user-supplied system call operations

// * * * * * * * * * * * * * * * * * * * * * * * * * * * * * * * * * * * * * //
Create time

Create mesh for time = 0


SIMPLE: convergence criteria
    field p	 tolerance 1e-05
    field U	 tolerance 1e-05
    field nuTilda	 tolerance 1e-05

Reading field p

Reading field U

Reading/calculating face flux field phi

Selecting incompressible transport model Newtonian
Selecting turbulence model type RAS
Selecting RAS turbulence model SpalartAllmaras
Selecting patchDistMethod meshWave
RAS
{
    RASModel        SpalartAllmaras;
    turbulence      on;
    printCoeffs     on;
    sigmaNut        0.66666;
    kappa           0.41;
    Cb1             0.1355;
    Cb2             0.622;
    Cw2             0.3;
    Cw3             2;
    Cv1             7.1;
    Cs              0.3;
}

No MRF models present

No finite volume options present


Starting time loop

Time = 1

smoothSolver:  Solving for Ux, Initial residual = 1, Final residual = 0.0391115, No Iterations 2
smoothSolver:  Solving for Uy, Initial residual = 1, Final residual = 0.0690685, No Iterations 2
GAMG:  Solving for p, Initial residual = 1, Final residual = 0.0830559, No Iterations 7
time step continuity errors : sum local = 0.00128377, global = -8.97855e-17, cumulative = -8.97855e-17
smoothSolver:  Solving for nuTilda, Initial residual = 1, Final residual = 0.0172374, No Iterations 2
ExecutionTime = 0.08 s  ClockTime = 0 s

Time = 2

smoothSolver:  Solving for Ux, Initial residual = 0.540365, Final residual = 0.0533169, No Iterations 2
smoothSolver:  Solving for Uy, Initial residual = 0.451107, Final residual = 0.0124881, No Iterations 4
GAMG:  Solving for p, Initial residual = 0.835547, Final residual = 0.0633524, No Iterations 3
time step continuity errors : sum local = 0.00304672, global = 4.42374e-17, cumulative = -4.55481e-17
smoothSolver:  Solving for nuTilda, Initial residual = 0.105411, Final residual = 0.00524264, No Iterations 2
ExecutionTime = 0.09 s  ClockTime = 0 s

Time = 3

smoothSolver:  Solving for Ux, Initial residual = 0.195916, Final residual = 0.0154542, No Iterations 2
smoothSolver:  Solving for Uy, Initial residual = 0.103991, Final residual = 0.00204346, No Iterations 4
GAMG:  Solving for p, Initial residual = 0.834585, Final residual = 0.0518885, No Iterations 5
time step continuity errors : sum local = 0.00364431, global = -2.9784e-16, cumulative = -3.43389e-16
smoothSolver:  Solving for nuTilda, Initial residual = 0.0317282, Final residual = 0.00296048, No Iterations 2
ExecutionTime = 0.1 s  ClockTime = 0 s

Time = 4

smoothSolver:  Solving for Ux, Initial residual = 0.0605962, Final residual = 0.00523599, No Iterations 2
smoothSolver:  Solving for Uy, Initial residual = 0.0330775, Final residual = 0.000641858, No Iterations 4
GAMG:  Solving for p, Initial residual = 0.834384, Final residual = 0.0648985, No Iterations 4
time step continuity errors : sum local = 0.00380804, global = -1.05718e-15, cumulative = -1.40057e-15
smoothSolver:  Solving for nuTilda, Initial residual = 0.0170983, Final residual = 0.000285746, No Iterations 4
ExecutionTime = 0.12 s  ClockTime = 0 s

Time = 5

smoothSolver:  Solving for Ux, Initial residual = 0.1063, Final residual = 0.00906738, No Iterations 2
smoothSolver:  Solving for Uy, Initial residual = 0.0608881, Final residual = 0.00110881, No Iterations 4
GAMG:  Solving for p, Initial residual = 0.819423, Final residual = 0.0621266, No Iterations 3
time step continuity errors : sum local = 0.00369268, global = 2.96065e-16, cumulative = -1.10451e-15
smoothSolver:  Solving for nuTilda, Initial residual = 0.0118324, Final residual = 0.000202398, No Iterations 4
ExecutionTime = 0.14 s  ClockTime = 0 s

Time = 6

smoothSolver:  Solving for Ux, Initial residual = 0.145351, Final residual = 0.0103041, No Iterations 2
smoothSolver:  Solving for Uy, Initial residual = 0.0881781, Final residual = 0.00866432, No Iterations 2
GAMG:  Solving for p, Initial residual = 0.765189, Final residual = 0.0688932, No Iterations 4
time step continuity errors : sum local = 0.00380707, global = -1.27899e-16, cumulative = -1.23241e-15
smoothSolver:  Solving for nuTilda, Initial residual = 0.00939954, Final residual = 0.000153801, No Iterations 4
ExecutionTime = 0.15 s  ClockTime = 0 s

Time = 7

smoothSolver:  Solving for Ux, Initial residual = 0.0925407, Final residual = 0.0064996, No Iterations 2
smoothSolver:  Solving for Uy, Initial residual = 0.074928, Final residual = 0.001221, No Iterations 4
GAMG:  Solving for p, Initial residual = 0.774858, Final residual = 0.0558867, No Iterations 5
time step continuity errors : sum local = 0.00274452, global = -3.20721e-16, cumulative = -1.55313e-15
smoothSolver:  Solving for nuTilda, Initial residual = 0.00775345, Final residual = 0.000121018, No Iterations 4
bounding nuTilda, min: -0.00133543 max: 0.14062 average: 0.129764
ExecutionTime = 0.17 s  ClockTime = 0 s

Time = 8

smoothSolver:  Solving for Ux, Initial residual = 0.0789995, Final residual = 0.00518708, No Iterations 2
smoothSolver:  Solving for Uy, Initial residual = 0.0552693, Final residual = 0.00453242, No Iterations 2
GAMG:  Solving for p, Initial residual = 0.771138, Final residual = 0.0759383, No Iterations 3
time step continuity errors : sum local = 0.00355133, global = 6.48413e-16, cumulative = -9.04714e-16
smoothSolver:  Solving for nuTilda, Initial residual = 0.00655228, Final residual = 9.96687e-05, No Iterations 4
ExecutionTime = 0.18 s  ClockTime = 0 s

Time = 9

smoothSolver:  Solving for Ux, Initial residual = 0.0948411, Final residual = 0.00580726, No Iterations 2
smoothSolver:  Solving for Uy, Initial residual = 0.0486269, Final residual = 0.00395182, No Iterations 2
GAMG:  Solving for p, Initial residual = 0.781426, Final residual = 0.0780061, No Iterations 3
time step continuity errors : sum local = 0.00332097, global = -3.0901e-16, cumulative = -1.21372e-15
smoothSolver:  Solving for nuTilda, Initial residual = 0.00564312, Final residual = 8.39367e-05, No Iterations 4
ExecutionTime = 0.2 s  ClockTime = 0 s

Time = 10

smoothSolver:  Solving for Ux, Initial residual = 0.0682747, Final residual = 0.00404414, No Iterations 2
smoothSolver:  Solving for Uy, Initial residual = 0.0306992, Final residual = 0.00237105, No Iterations 2
GAMG:  Solving for p, Initial residual = 0.755588, Final residual = 0.0659175, No Iterations 4
time step continuity errors : sum local = 0.00268625, global = -2.12405e-16, cumulative = -1.42613e-15
smoothSolver:  Solving for nuTilda, Initial residual = 0.00503434, Final residual = 0.000497862, No Iterations 2
ExecutionTime = 0.22 s  ClockTime = 0 s

Time = 11

smoothSolver:  Solving for Ux, Initial residual = 0.0361692, Final residual = 0.00241626, No Iterations 2
smoothSolver:  Solving for Uy, Initial residual = 0.019968, Final residual = 0.00175058, No Iterations 2
GAMG:  Solving for p, Initial residual = 0.745604, Final residual = 0.0560123, No Iterations 4
time step continuity errors : sum local = 0.00221604, global = -2.39373e-17, cumulative = -1.45007e-15
smoothSolver:  Solving for nuTilda, Initial residual = 0.00469219, Final residual = 0.000457702, No Iterations 2
ExecutionTime = 0.23 s  ClockTime = 0 s

Time = 12

smoothSolver:  Solving for Ux, Initial residual = 0.0463625, Final residual = 0.00271999, No Iterations 2
smoothSolver:  Solving for Uy, Initial residual = 0.0258182, Final residual = 0.00249007, No Iterations 2
GAMG:  Solving for p, Initial residual = 0.711213, Final residual = 0.058752, No Iterations 3
time step continuity errors : sum local = 0.00216268, global = -2.39889e-16, cumulative = -1.68996e-15
smoothSolver:  Solving for nuTilda, Initial residual = 0.00443941, Final residual = 0.000431628, No Iterations 2
bounding nuTilda, min: -0.000767706 max: 0.141315 average: 0.127531
ExecutionTime = 0.25 s  ClockTime = 0 s

Time = 13

smoothSolver:  Solving for Ux, Initial residual = 0.0408155, Final residual = 0.00212091, No Iterations 2
smoothSolver:  Solving for Uy, Initial residual = 0.0236559, Final residual = 0.000438032, No Iterations 4
GAMG:  Solving for p, Initial residual = 0.700073, Final residual = 0.0529559, No Iterations 4
time step continuity errors : sum local = 0.00186001, global = 1.61129e-16, cumulative = -1.52883e-15
smoothSolver:  Solving for nuTilda, Initial residual = 0.00421576, Final residual = 0.000409913, No Iterations 2
bounding nuTilda, min: -0.00240686 max: 0.141442 average: 0.127203
ExecutionTime = 0.26 s  ClockTime = 0 s

Time = 14

smoothSolver:  Solving for Ux, Initial residual = 0.0332524, Final residual = 0.00189236, No Iterations 2
smoothSolver:  Solving for Uy, Initial residual = 0.0180886, Final residual = 0.0014148, No Iterations 2
GAMG:  Solving for p, Initial residual = 0.679858, Final residual = 0.0552223, No Iterations 4
time step continuity errors : sum local = 0.00178914, global = -2.77816e-16, cumulative = -1.80664e-15
smoothSolver:  Solving for nuTilda, Initial residual = 0.00397931, Final residual = 0.000388981, No Iterations 2
bounding nuTilda, min: -0.00300867 max: 0.141569 average: 0.126896
ExecutionTime = 0.28 s  ClockTime = 0 s

Time = 15

smoothSolver:  Solving for Ux, Initial residual = 0.0371512, Final residual = 0.0021128, No Iterations 2
smoothSolver:  Solving for Uy, Initial residual = 0.0203142, Final residual = 0.00127084, No Iterations 2
GAMG:  Solving for p, Initial residual = 0.671268, Final residual = 0.0618592, No Iterations 3
time step continuity errors : sum local = 0.00190461, global = 7.72044e-16, cumulative = -1.0346e-15
smoothSolver:  Solving for nuTilda, Initial residual = 0.00375141, Final residual = 0.000366238, No Iterations 2
bounding nuTilda, min: -0.00218566 max: 0.141699 average: 0.126611
ExecutionTime = 0.29 s  ClockTime = 0 s

Time = 16

smoothSolver:  Solving for Ux, Initial residual = 0.033256, Final residual = 0.00181264, No Iterations 2
smoothSolver:  Solving for Uy, Initial residual = 0.0173316, Final residual = 0.00130457, No Iterations 2
GAMG:  Solving for p, Initial residual = 0.649863, Final residual = 0.0374949, No Iterations 4
time step continuity errors : sum local = 0.00111674, global = 3.50866e-16, cumulative = -6.83733e-16
smoothSolver:  Solving for nuTilda, Initial residual = 0.00355729, Final residual = 0.000346974, No Iterations 2
bounding nuTilda, min: -0.000791165 max: 0.141834 average: 0.126345
ExecutionTime = 0.31 s  ClockTime = 0 s

Time = 17

smoothSolver:  Solving for Ux, Initial residual = 0.0278391, Final residual = 0.00160675, No Iterations 2
smoothSolver:  Solving for Uy, Initial residual = 0.0133805, Final residual = 0.0012002, No Iterations 2
GAMG:  Solving for p, Initial residual = 0.626843, Final residual = 0.0593473, No Iterations 3
time step continuity errors : sum local = 0.00168925, global = -1.79899e-17, cumulative = -7.01723e-16
smoothSolver:  Solving for nuTilda, Initial residual = 0.00341031, Final residual = 0.000332805, No Iterations 2
bounding nuTilda, min: -3.45723e-05 max: 0.141986 average: 0.126094
ExecutionTime = 0.32 s  ClockTime = 0 s

Time = 18

smoothSolver:  Solving for Ux, Initial residual = 0.0254003, Final residual = 0.00157353, No Iterations 2
smoothSolver:  Solving for Uy, Initial residual = 0.0129855, Final residual = 0.00120922, No Iterations 2
GAMG:  Solving for p, Initial residual = 0.612243, Final residual = 0.0308602, No Iterations 4
time step continuity errors : sum local = 0.00084212, global = -4.23724e-16, cumulative = -1.12545e-15
smoothSolver:  Solving for nuTilda, Initial residual = 0.00328116, Final residual = 0.000321582, No Iterations 2
bounding nuTilda, min: -0.000625716 max: 0.142138 average: 0.125858
ExecutionTime = 0.34 s  ClockTime = 0 s

Time = 19

smoothSolver:  Solving for Ux, Initial residual = 0.0214896, Final residual = 0.00145777, No Iterations 2
smoothSolver:  Solving for Uy, Initial residual = 0.012704, Final residual = 0.00120007, No Iterations 2
GAMG:  Solving for p, Initial residual = 0.590511, Final residual = 0.040238, No Iterations 4
time step continuity errors : sum local = 0.0010507, global = -6.70806e-16, cumulative = -1.79625e-15
smoothSolver:  Solving for nuTilda, Initial residual = 0.00317297, Final residual = 0.000313612, No Iterations 2
bounding nuTilda, min: -0.00222447 max: 0.142286 average: 0.125632
ExecutionTime = 0.35 s  ClockTime = 0 s

Time = 20

smoothSolver:  Solving for Ux, Initial residual = 0.022926, Final residual = 0.00134651, No Iterations 2
smoothSolver:  Solving for Uy, Initial residual = 0.011733, Final residual = 0.00101948, No Iterations 2
GAMG:  Solving for p, Initial residual = 0.571178, Final residual = 0.0402781, No Iterations 3
time step continuity errors : sum local = 0.000976613, global = -4.71073e-16, cumulative = -2.26733e-15
smoothSolver:  Solving for nuTilda, Initial residual = 0.00307507, Final residual = 0.0003064, No Iterations 2
bounding nuTilda, min: -0.00230638 max: 0.142435 average: 0.125417
ExecutionTime = 0.37 s  ClockTime = 0 s

Time = 21

smoothSolver:  Solving for Ux, Initial residual = 0.0224753, Final residual = 0.00129287, No Iterations 2
smoothSolver:  Solving for Uy, Initial residual = 0.0108978, Final residual = 0.000855643, No Iterations 2
GAMG:  Solving for p, Initial residual = 0.574458, Final residual = 0.0475661, No Iterations 4
time step continuity errors : sum local = 0.00109449, global = -1.84551e-16, cumulative = -2.45188e-15
smoothSolver:  Solving for nuTilda, Initial residual = 0.00299342, Final residual = 4.85937e-05, No Iterations 4
bounding nuTilda, min: -0.00163761 max: 0.142606 average: 0.125184
ExecutionTime = 0.38 s  ClockTime = 0 s

Time = 22

smoothSolver:  Solving for Ux, Initial residual = 0.0194269, Final residual = 0.00117049, No Iterations 2
smoothSolver:  Solving for Uy, Initial residual = 0.0104591, Final residual = 0.000896941, No Iterations 2
GAMG:  Solving for p, Initial residual = 0.555197, Final residual = 0.0438797, No Iterations 4
time step continuity errors : sum local = 0.000974799, global = 9.54969e-17, cumulative = -2.35638e-15
smoothSolver:  Solving for nuTilda, Initial residual = 0.00289361, Final residual = 4.66126e-05, No Iterations 4
bounding nuTilda, min: -0.000473303 max: 0.142792 average: 0.124959
ExecutionTime = 0.4 s  ClockTime = 0 s

Time = 23

smoothSolver:  Solving for Ux, Initial residual = 0.0203747, Final residual = 0.0011733, No Iterations 2
smoothSolver:  Solving for Uy, Initial residual = 0.0102188, Final residual = 0.000976527, No Iterations 2
GAMG:  Solving for p, Initial residual = 0.528384, Final residual = 0.0394237, No Iterations 3
time step continuity errors : sum local = 0.000867634, global = 5.90173e-16, cumulative = -1.76621e-15
smoothSolver:  Solving for nuTilda, Initial residual = 0.00280396, Final residual = 4.49609e-05, No Iterations 4
ExecutionTime = 0.41 s  ClockTime = 0 s

Time = 24

smoothSolver:  Solving for Ux, Initial residual = 0.0204441, Final residual = 0.00119118, No Iterations 2
smoothSolver:  Solving for Uy, Initial residual = 0.0098153, Final residual = 0.000970162, No Iterations 2
GAMG:  Solving for p, Initial residual = 0.51425, Final residual = 0.0397021, No Iterations 3
time step continuity errors : sum local = 0.000838509, global = -2.49186e-16, cumulative = -2.01539e-15
smoothSolver:  Solving for nuTilda, Initial residual = 0.00271587, Final residual = 4.36181e-05, No Iterations 4
bounding nuTilda, min: -0.000324921 max: 0.143153 average: 0.124527
ExecutionTime = 0.42 s  ClockTime = 0 s

Time = 25

smoothSolver:  Solving for Ux, Initial residual = 0.0189176, Final residual = 0.00118983, No Iterations 2
smoothSolver:  Solving for Uy, Initial residual = 0.00932894, Final residual = 0.000903065, No Iterations 2
GAMG:  Solving for p, Initial residual = 0.501235, Final residual = 0.0464356, No Iterations 4
time step continuity errors : sum local = 0.000968583, global = 2.49799e-16, cumulative = -1.76559e-15
smoothSolver:  Solving for nuTilda, Initial residual = 0.00263023, Final residual = 4.27856e-05, No Iterations 4
bounding nuTilda, min: -0.000755284 max: 0.143329 average: 0.124321
ExecutionTime = 0.44 s  ClockTime = 0 s

Time = 26

smoothSolver:  Solving for Ux, Initial residual = 0.0167005, Final residual = 0.00116947, No Iterations 2
smoothSolver:  Solving for Uy, Initial residual = 0.00906544, Final residual = 0.000817289, No Iterations 2
GAMG:  Solving for p, Initial residual = 0.484138, Final residual = 0.0434599, No Iterations 3
time step continuity errors : sum local = 0.000877144, global = -1.29062e-17, cumulative = -1.7785e-15
smoothSolver:  Solving for nuTilda, Initial residual = 0.00255186, Final residual = 4.2326e-05, No Iterations 4
bounding nuTilda, min: -0.000316884 max: 0.143521 average: 0.124122
ExecutionTime = 0.45 s  ClockTime = 0 s

Time = 27

smoothSolver:  Solving for Ux, Initial residual = 0.0167169, Final residual = 0.00113734, No Iterations 2
smoothSolver:  Solving for Uy, Initial residual = 0.00870456, Final residual = 0.000783808, No Iterations 2
GAMG:  Solving for p, Initial residual = 0.473769, Final residual = 0.0320342, No Iterations 3
time step continuity errors : sum local = 0.000616388, global = 1.26433e-16, cumulative = -1.65207e-15
smoothSolver:  Solving for nuTilda, Initial residual = 0.00248386, Final residual = 4.22005e-05, No Iterations 4
ExecutionTime = 0.46 s  ClockTime = 0 s

Time = 28

smoothSolver:  Solving for Ux, Initial residual = 0.0163616, Final residual = 0.00106246, No Iterations 2
smoothSolver:  Solving for Uy, Initial residual = 0.00832742, Final residual = 0.000783208, No Iterations 2
GAMG:  Solving for p, Initial residual = 0.462807, Final residual = 0.0381766, No Iterations 3
time step continuity errors : sum local = 0.000719196, global = -4.82705e-16, cumulative = -2.13477e-15
smoothSolver:  Solving for nuTilda, Initial residual = 0.00242642, Final residual = 4.21344e-05, No Iterations 4
ExecutionTime = 0.49 s  ClockTime = 0 s

Time = 29

smoothSolver:  Solving for Ux, Initial residual = 0.0161619, Final residual = 0.000995895, No Iterations 2
smoothSolver:  Solving for Uy, Initial residual = 0.00822311, Final residual = 0.000794986, No Iterations 2
GAMG:  Solving for p, Initial residual = 0.451658, Final residual = 0.0357045, No Iterations 4
time step continuity errors : sum local = 0.00065502, global = 4.16468e-16, cumulative = -1.7183e-15
smoothSolver:  Solving for nuTilda, Initial residual = 0.00237657, Final residual = 4.20772e-05, No Iterations 4
ExecutionTime = 0.5 s  ClockTime = 0 s

Time = 30

smoothSolver:  Solving for Ux, Initial residual = 0.0161708, Final residual = 0.00100991, No Iterations 2
smoothSolver:  Solving for Uy, Initial residual = 0.00828361, Final residual = 0.000808293, No Iterations 2
GAMG:  Solving for p, Initial residual = 0.432702, Final residual = 0.0375078, No Iterations 3
time step continuity errors : sum local = 0.000679964, global = -1.1332e-15, cumulative = -2.85151e-15
smoothSolver:  Solving for nuTilda, Initial residual = 0.00233147, Final residual = 4.20294e-05, No Iterations 4
ExecutionTime = 0.51 s  ClockTime = 0 s

Time = 31

smoothSolver:  Solving for Ux, Initial residual = 0.0160043, Final residual = 0.00103461, No Iterations 2
smoothSolver:  Solving for Uy, Initial residual = 0.00788769, Final residual = 0.000774436, No Iterations 2
GAMG:  Solving for p, Initial residual = 0.413399, Final residual = 0.0286261, No Iterations 3
time step continuity errors : sum local = 0.000499631, global = 2.14832e-16, cumulative = -2.63668e-15
smoothSolver:  Solving for nuTilda, Initial residual = 0.00229189, Final residual = 4.19994e-05, No Iterations 4
ExecutionTime = 0.53 s  ClockTime = 0 s

Time = 32

smoothSolver:  Solving for Ux, Initial residual = 0.0152936, Final residual = 0.00102836, No Iterations 2
smoothSolver:  Solving for Uy, Initial residual = 0.00742909, Final residual = 0.000739625, No Iterations 2
GAMG:  Solving for p, Initial residual = 0.401302, Final residual = 0.0329147, No Iterations 3
time step continuity errors : sum local = 0.000576694, global = 5.23876e-16, cumulative = -2.1128e-15
smoothSolver:  Solving for nuTilda, Initial residual = 0.00225211, Final residual = 4.19687e-05, No Iterations 4
ExecutionTime = 0.54 s  ClockTime = 0 s

Time = 33

smoothSolver:  Solving for Ux, Initial residual = 0.0146659, Final residual = 0.00100681, No Iterations 2
smoothSolver:  Solving for Uy, Initial residual = 0.00737164, Final residual = 0.000147664, No Iterations 4
GAMG:  Solving for p, Initial residual = 0.397338, Final residual = 0.0179783, No Iterations 4
time step continuity errors : sum local = 0.000305153, global = 8.36852e-16, cumulative = -1.27595e-15
smoothSolver:  Solving for nuTilda, Initial residual = 0.00221317, Final residual = 4.20765e-05, No Iterations 4
ExecutionTime = 0.56 s  ClockTime = 0 s

Time = 34

smoothSolver:  Solving for Ux, Initial residual = 0.014555, Final residual = 0.00099757, No Iterations 2
smoothSolver:  Solving for Uy, Initial residual = 0.00736656, Final residual = 0.000694227, No Iterations 2
GAMG:  Solving for p, Initial residual = 0.377014, Final residual = 0.0307283, No Iterations 3
time step continuity errors : sum local = 0.000509879, global = -3.03932e-16, cumulative = -1.57988e-15
smoothSolver:  Solving for nuTilda, Initial residual = 0.00217554, Final residual = 4.22785e-05, No Iterations 4
ExecutionTime = 0.57 s  ClockTime = 0 s

Time = 35

smoothSolver:  Solving for Ux, Initial residual = 0.0144509, Final residual = 0.000984287, No Iterations 2
smoothSolver:  Solving for Uy, Initial residual = 0.00723772, Final residual = 0.000677324, No Iterations 2
GAMG:  Solving for p, Initial residual = 0.365866, Final residual = 0.0301098, No Iterations 3
time step continuity errors : sum local = 0.000500115, global = 3.16988e-16, cumulative = -1.26289e-15
smoothSolver:  Solving for nuTilda, Initial residual = 0.00214179, Final residual = 4.25173e-05, No Iterations 4
ExecutionTime = 0.59 s  ClockTime = 1 s

Time = 36

smoothSolver:  Solving for Ux, Initial residual = 0.0142453, Final residual = 0.000960455, No Iterations 2
smoothSolver:  Solving for Uy, Initial residual = 0.00707088, Final residual = 0.000672544, No Iterations 2
GAMG:  Solving for p, Initial residual = 0.353009, Final residual = 0.0253063, No Iterations 3
time step continuity errors : sum local = 0.000417089, global = -5.91298e-16, cumulative = -1.85419e-15
smoothSolver:  Solving for nuTilda, Initial residual = 0.00211387, Final residual = 4.28415e-05, No Iterations 4
ExecutionTime = 0.6 s  ClockTime = 1 s

Time = 37

smoothSolver:  Solving for Ux, Initial residual = 0.0138454, Final residual = 0.000927857, No Iterations 2
smoothSolver:  Solving for Uy, Initial residual = 0.00691404, Final residual = 0.000664808, No Iterations 2
GAMG:  Solving for p, Initial residual = 0.33484, Final residual = 0.0322134, No Iterations 3
time step continuity errors : sum local = 0.000524293, global = 4.79459e-16, cumulative = -1.37473e-15
smoothSolver:  Solving for nuTilda, Initial residual = 0.00208813, Final residual = 4.3095e-05, No Iterations 4
ExecutionTime = 0.62 s  ClockTime = 1 s

Time = 38

smoothSolver:  Solving for Ux, Initial residual = 0.0133371, Final residual = 0.000905296, No Iterations 2
smoothSolver:  Solving for Uy, Initial residual = 0.00671794, Final residual = 0.000666194, No Iterations 2
GAMG:  Solving for p, Initial residual = 0.320025, Final residual = 0.0272837, No Iterations 3
time step continuity errors : sum local = 0.000429663, global = 5.46075e-16, cumulative = -8.28655e-16
smoothSolver:  Solving for nuTilda, Initial residual = 0.00206505, Final residual = 4.33305e-05, No Iterations 4
ExecutionTime = 0.63 s  ClockTime = 1 s

Time = 39

smoothSolver:  Solving for Ux, Initial residual = 0.0131081, Final residual = 0.000892852, No Iterations 2
smoothSolver:  Solving for Uy, Initial residual = 0.00652752, Final residual = 0.000134084, No Iterations 4
GAMG:  Solving for p, Initial residual = 0.318639, Final residual = 0.0253705, No Iterations 4
time step continuity errors : sum local = 0.000397755, global = 6.04859e-17, cumulative = -7.68169e-16
smoothSolver:  Solving for nuTilda, Initial residual = 0.00204228, Final residual = 4.35563e-05, No Iterations 4
ExecutionTime = 0.65 s  ClockTime = 1 s

Time = 40

smoothSolver:  Solving for Ux, Initial residual = 0.0134681, Final residual = 0.000899997, No Iterations 2
smoothSolver:  Solving for Uy, Initial residual = 0.0062787, Final residual = 0.000611484, No Iterations 2
GAMG:  Solving for p, Initial residual = 0.304378, Final residual = 0.0199339, No Iterations 3
time step continuity errors : sum local = 0.000311826, global = 5.314e-16, cumulative = -2.36768e-16
smoothSolver:  Solving for nuTilda, Initial residual = 0.0020201, Final residual = 4.38189e-05, No Iterations 4
ExecutionTime = 0.65 s  ClockTime = 1 s

Time = 41

smoothSolver:  Solving for Ux, Initial residual = 0.013038, Final residual = 0.000881584, No Iterations 2
smoothSolver:  Solving for Uy, Initial residual = 0.00619747, Final residual = 0.000597364, No Iterations 2
GAMG:  Solving for p, Initial residual = 0.295935, Final residual = 0.0227871, No Iterations 3
time step continuity errors : sum local = 0.000344663, global = 3.5468e-16, cumulative = 1.17912e-16
smoothSolver:  Solving for nuTilda, Initial residual = 0.00199891, Final residual = 4.41268e-05, No Iterations 4
ExecutionTime = 0.67 s  ClockTime = 1 s

Time = 42

smoothSolver:  Solving for Ux, Initial residual = 0.0123345, Final residual = 0.000861888, No Iterations 2
smoothSolver:  Solving for Uy, Initial residual = 0.00609403, Final residual = 0.000598448, No Iterations 2
GAMG:  Solving for p, Initial residual = 0.282206, Final residual = 0.0131498, No Iterations 4
time step continuity errors : sum local = 0.000200074, global = 6.01185e-16, cumulative = 7.19097e-16
smoothSolver:  Solving for nuTilda, Initial residual = 0.00197988, Final residual = 4.44954e-05, No Iterations 4
ExecutionTime = 0.68 s  ClockTime = 1 s

Time = 43

smoothSolver:  Solving for Ux, Initial residual = 0.0120065, Final residual = 0.000849479, No Iterations 2
smoothSolver:  Solving for Uy, Initial residual = 0.0060736, Final residual = 0.000601948, No Iterations 2
GAMG:  Solving for p, Initial residual = 0.263152, Final residual = 0.0251214, No Iterations 3
time step continuity errors : sum local = 0.000382367, global = 7.13635e-16, cumulative = 1.43273e-15
smoothSolver:  Solving for nuTilda, Initial residual = 0.00196361, Final residual = 4.49404e-05, No Iterations 4
ExecutionTime = 0.7 s  ClockTime = 1 s

Time = 44

smoothSolver:  Solving for Ux, Initial residual = 0.0118929, Final residual = 0.000828627, No Iterations 2
smoothSolver:  Solving for Uy, Initial residual = 0.0060996, Final residual = 0.000602252, No Iterations 2
GAMG:  Solving for p, Initial residual = 0.251254, Final residual = 0.0159598, No Iterations 3
time step continuity errors : sum local = 0.000237838, global = -7.61445e-16, cumulative = 6.71287e-16
smoothSolver:  Solving for nuTilda, Initial residual = 0.00194921, Final residual = 4.53871e-05, No Iterations 4
ExecutionTime = 0.72 s  ClockTime = 1 s

Time = 45

smoothSolver:  Solving for Ux, Initial residual = 0.0115432, Final residual = 0.000801845, No Iterations 2
smoothSolver:  Solving for Uy, Initial residual = 0.00607651, Final residual = 0.0005938, No Iterations 2
GAMG:  Solving for p, Initial residual = 0.243241, Final residual = 0.00980492, No Iterations 4
time step continuity errors : sum local = 0.000144159, global = -6.89224e-16, cumulative = -1.79374e-17
smoothSolver:  Solving for nuTilda, Initial residual = 0.00193577, Final residual = 4.58022e-05, No Iterations 4
ExecutionTime = 0.73 s  ClockTime = 1 s

Time = 46

smoothSolver:  Solving for Ux, Initial residual = 0.0111367, Final residual = 0.000771589, No Iterations 2
smoothSolver:  Solving for Uy, Initial residual = 0.00588366, Final residual = 0.000571005, No Iterations 2
GAMG:  Solving for p, Initial residual = 0.235247, Final residual = 0.0104759, No Iterations 4
time step continuity errors : sum local = 0.000151307, global = 3.80062e-16, cumulative = 3.62125e-16
smoothSolver:  Solving for nuTilda, Initial residual = 0.00192236, Final residual = 4.6195e-05, No Iterations 4
ExecutionTime = 0.74 s  ClockTime = 1 s

Time = 47

smoothSolver:  Solving for Ux, Initial residual = 0.010883, Final residual = 0.000754209, No Iterations 2
smoothSolver:  Solving for Uy, Initial residual = 0.00561713, Final residual = 0.000549655, No Iterations 2
GAMG:  Solving for p, Initial residual = 0.226984, Final residual = 0.0151968, No Iterations 4
time step continuity errors : sum local = 0.000221123, global = -5.70004e-17, cumulative = 3.05124e-16
smoothSolver:  Solving for nuTilda, Initial residual = 0.00191013, Final residual = 4.65509e-05, No Iterations 4
ExecutionTime = 0.76 s  ClockTime = 1 s

Time = 48

smoothSolver:  Solving for Ux, Initial residual = 0.010729, Final residual = 0.000745267, No Iterations 2
smoothSolver:  Solving for Uy, Initial residual = 0.00538365, Final residual = 0.000535848, No Iterations 2
GAMG:  Solving for p, Initial residual = 0.216244, Final residual = 0.0130797, No Iterations 3
time step continuity errors : sum local = 0.000186594, global = -2.01397e-16, cumulative = 1.03727e-16
smoothSolver:  Solving for nuTilda, Initial residual = 0.00189908, Final residual = 4.68977e-05, No Iterations 4
ExecutionTime = 0.77 s  ClockTime = 1 s

Time = 49

smoothSolver:  Solving for Ux, Initial residual = 0.0103662, Final residual = 0.000725985, No Iterations 2
smoothSolver:  Solving for Uy, Initial residual = 0.00526269, Final residual = 0.000105483, No Iterations 4
GAMG:  Solving for p, Initial residual = 0.211077, Final residual = 0.00928224, No Iterations 4
time step continuity errors : sum local = 0.000131817, global = 3.19602e-16, cumulative = 4.23329e-16
smoothSolver:  Solving for nuTilda, Initial residual = 0.00188899, Final residual = 4.72552e-05, No Iterations 4
ExecutionTime = 0.79 s  ClockTime = 1 s

Time = 50

smoothSolver:  Solving for Ux, Initial residual = 0.0101233, Final residual = 0.000711583, No Iterations 2
smoothSolver:  Solving for Uy, Initial residual = 0.0051798, Final residual = 0.00049559, No Iterations 2
GAMG:  Solving for p, Initial residual = 0.198179, Final residual = 0.00833496, No Iterations 4
time step continuity errors : sum local = 0.000118352, global = -9.57734e-16, cumulative = -5.34405e-16
smoothSolver:  Solving for nuTilda, Initial residual = 0.00187879, Final residual = 4.75957e-05, No Iterations 4
ExecutionTime = 0.83 s  ClockTime = 1 s

Time = 51

smoothSolver:  Solving for Ux, Initial residual = 0.00995456, Final residual = 0.000695996, No Iterations 2
smoothSolver:  Solving for Uy, Initial residual = 0.00521362, Final residual = 0.000491969, No Iterations 2
GAMG:  Solving for p, Initial residual = 0.191669, Final residual = 0.0135865, No Iterations 3
time step continuity errors : sum local = 0.000195842, global = 6.29465e-16, cumulative = 9.50605e-17
smoothSolver:  Solving for nuTilda, Initial residual = 0.0018678, Final residual = 4.79085e-05, No Iterations 4
ExecutionTime = 0.85 s  ClockTime = 1 s

Time = 52

smoothSolver:  Solving for Ux, Initial residual = 0.00966092, Final residual = 0.000674045, No Iterations 2
smoothSolver:  Solving for Uy, Initial residual = 0.00524053, Final residual = 0.000501628, No Iterations 2
GAMG:  Solving for p, Initial residual = 0.184029, Final residual = 0.010963, No Iterations 3
time step continuity errors : sum local = 0.000154604, global = -4.47496e-16, cumulative = -3.52436e-16
smoothSolver:  Solving for nuTilda, Initial residual = 0.00185634, Final residual = 4.82112e-05, No Iterations 4
ExecutionTime = 0.86 s  ClockTime = 1 s

Time = 53

smoothSolver:  Solving for Ux, Initial residual = 0.00928292, Final residual = 0.000647861, No Iterations 2
smoothSolver:  Solving for Uy, Initial residual = 0.0052069, Final residual = 0.000506061, No Iterations 2
GAMG:  Solving for p, Initial residual = 0.176167, Final residual = 0.0135732, No Iterations 3
time step continuity errors : sum local = 0.000188955, global = 6.09216e-16, cumulative = 2.5678e-16
smoothSolver:  Solving for nuTilda, Initial residual = 0.00184368, Final residual = 4.84714e-05, No Iterations 4
ExecutionTime = 0.87 s  ClockTime = 1 s

Time = 54

smoothSolver:  Solving for Ux, Initial residual = 0.00892435, Final residual = 0.000623745, No Iterations 2
smoothSolver:  Solving for Uy, Initial residual = 0.00508803, Final residual = 0.000499614, No Iterations 2
GAMG:  Solving for p, Initial residual = 0.171399, Final residual = 0.00787762, No Iterations 4
time step continuity errors : sum local = 0.000108974, global = 7.43194e-16, cumulative = 9.99974e-16
smoothSolver:  Solving for nuTilda, Initial residual = 0.00183009, Final residual = 4.8706e-05, No Iterations 4
ExecutionTime = 0.88 s  ClockTime = 1 s

Time = 55

smoothSolver:  Solving for Ux, Initial residual = 0.00876981, Final residual = 0.000609205, No Iterations 2
smoothSolver:  Solving for Uy, Initial residual = 0.00484055, Final residual = 0.000479277, No Iterations 2
GAMG:  Solving for p, Initial residual = 0.163512, Final residual = 0.00782935, No Iterations 4
time step continuity errors : sum local = 0.000107425, global = -7.57819e-17, cumulative = 9.24192e-16
smoothSolver:  Solving for nuTilda, Initial residual = 0.00181621, Final residual = 4.89004e-05, No Iterations 4
ExecutionTime = 0.9 s  ClockTime = 1 s

Time = 56

smoothSolver:  Solving for Ux, Initial residual = 0.00862594, Final residual = 0.000592887, No Iterations 2
smoothSolver:  Solving for Uy, Initial residual = 0.00465649, Final residual = 0.000456103, No Iterations 2
GAMG:  Solving for p, Initial residual = 0.154794, Final residual = 0.0111019, No Iterations 3
time step continuity errors : sum local = 0.000151743, global = -2.90227e-16, cumulative = 6.33965e-16
smoothSolver:  Solving for nuTilda, Initial residual = 0.00180183, Final residual = 4.90802e-05, No Iterations 4
ExecutionTime = 0.91 s  ClockTime = 1 s

Time = 57

smoothSolver:  Solving for Ux, Initial residual = 0.00843136, Final residual = 0.000574292, No Iterations 2
smoothSolver:  Solving for Uy, Initial residual = 0.00459848, Final residual = 0.000441933, No Iterations 2
GAMG:  Solving for p, Initial residual = 0.147818, Final residual = 0.00624884, No Iterations 4
time step continuity errors : sum local = 8.56931e-05, global = 1.51424e-16, cumulative = 7.8539e-16
smoothSolver:  Solving for nuTilda, Initial residual = 0.00178685, Final residual = 4.92208e-05, No Iterations 4
ExecutionTime = 0.93 s  ClockTime = 1 s

Time = 58

smoothSolver:  Solving for Ux, Initial residual = 0.0082486, Final residual = 0.000560773, No Iterations 2
smoothSolver:  Solving for Uy, Initial residual = 0.00459683, Final residual = 0.000434438, No Iterations 2
GAMG:  Solving for p, Initial residual = 0.140824, Final residual = 0.00547883, No Iterations 4
time step continuity errors : sum local = 7.5099e-05, global = 7.02742e-18, cumulative = 7.92417e-16
smoothSolver:  Solving for nuTilda, Initial residual = 0.00177076, Final residual = 4.93387e-05, No Iterations 4
ExecutionTime = 0.94 s  ClockTime = 1 s

Time = 59

smoothSolver:  Solving for Ux, Initial residual = 0.00809979, Final residual = 0.00054603, No Iterations 2
smoothSolver:  Solving for Uy, Initial residual = 0.0046294, Final residual = 0.000433923, No Iterations 2
GAMG:  Solving for p, Initial residual = 0.13618, Final residual = 0.00804935, No Iterations 3
time step continuity errors : sum local = 0.000109264, global = 7.20696e-16, cumulative = 1.51311e-15
smoothSolver:  Solving for nuTilda, Initial residual = 0.00175394, Final residual = 4.94259e-05, No Iterations 4
ExecutionTime = 0.96 s  ClockTime = 1 s

Time = 60

smoothSolver:  Solving for Ux, Initial residual = 0.00785423, Final residual = 0.000527037, No Iterations 2
smoothSolver:  Solving for Uy, Initial residual = 0.00459531, Final residual = 0.000431475, No Iterations 2
GAMG:  Solving for p, Initial residual = 0.133541, Final residual = 0.00839963, No Iterations 3
time step continuity errors : sum local = 0.000113361, global = 1.11626e-16, cumulative = 1.62474e-15
smoothSolver:  Solving for nuTilda, Initial residual = 0.00173588, Final residual = 4.94943e-05, No Iterations 4
ExecutionTime = 0.97 s  ClockTime = 1 s

Time = 61

smoothSolver:  Solving for Ux, Initial residual = 0.00757636, Final residual = 0.000507095, No Iterations 2
smoothSolver:  Solving for Uy, Initial residual = 0.00449465, Final residual = 0.000423637, No Iterations 2
GAMG:  Solving for p, Initial residual = 0.128298, Final residual = 0.00526129, No Iterations 4
time step continuity errors : sum local = 7.08769e-05, global = -3.69652e-17, cumulative = 1.58777e-15
smoothSolver:  Solving for nuTilda, Initial residual = 0.0017166, Final residual = 4.95135e-05, No Iterations 4
ExecutionTime = 0.98 s  ClockTime = 1 s

Time = 62

smoothSolver:  Solving for Ux, Initial residual = 0.0073459, Final residual = 0.000490058, No Iterations 2
smoothSolver:  Solving for Uy, Initial residual = 0.00431432, Final residual = 0.000409465, No Iterations 2
GAMG:  Solving for p, Initial residual = 0.121194, Final residual = 0.00562954, No Iterations 4
time step continuity errors : sum local = 7.55444e-05, global = -5.80462e-17, cumulative = 1.52973e-15
smoothSolver:  Solving for nuTilda, Initial residual = 0.00169594, Final residual = 4.94846e-05, No Iterations 4
ExecutionTime = 1 s  ClockTime = 1 s

Time = 63

smoothSolver:  Solving for Ux, Initial residual = 0.00726276, Final residual = 0.000476897, No Iterations 2
smoothSolver:  Solving for Uy, Initial residual = 0.00417516, Final residual = 0.000391962, No Iterations 2
GAMG:  Solving for p, Initial residual = 0.11536, Final residual = 0.00899709, No Iterations 3
time step continuity errors : sum local = 0.000119572, global = -4.80235e-16, cumulative = 1.04949e-15
smoothSolver:  Solving for nuTilda, Initial residual = 0.00167466, Final residual = 4.94249e-05, No Iterations 4
ExecutionTime = 1.02 s  ClockTime = 1 s

Time = 64

smoothSolver:  Solving for Ux, Initial residual = 0.00716738, Final residual = 0.000463694, No Iterations 2
smoothSolver:  Solving for Uy, Initial residual = 0.00409749, Final residual = 0.000379793, No Iterations 2
GAMG:  Solving for p, Initial residual = 0.110429, Final residual = 0.00817569, No Iterations 3
time step continuity errors : sum local = 0.000108261, global = 3.0865e-16, cumulative = 1.35814e-15
smoothSolver:  Solving for nuTilda, Initial residual = 0.00165243, Final residual = 4.93237e-05, No Iterations 4
ExecutionTime = 1.03 s  ClockTime = 1 s

Time = 65

smoothSolver:  Solving for Ux, Initial residual = 0.00704809, Final residual = 0.000451593, No Iterations 2
smoothSolver:  Solving for Uy, Initial residual = 0.00405494, Final residual = 0.000372685, No Iterations 2
GAMG:  Solving for p, Initial residual = 0.106174, Final residual = 0.0082846, No Iterations 3
time step continuity errors : sum local = 0.000109021, global = -7.04825e-16, cumulative = 6.53316e-16
smoothSolver:  Solving for nuTilda, Initial residual = 0.00162913, Final residual = 4.91811e-05, No Iterations 4
ExecutionTime = 1.04 s  ClockTime = 1 s

Time = 66

smoothSolver:  Solving for Ux, Initial residual = 0.00688921, Final residual = 0.00043926, No Iterations 2
smoothSolver:  Solving for Uy, Initial residual = 0.00404993, Final residual = 0.000369166, No Iterations 2
GAMG:  Solving for p, Initial residual = 0.10339, Final residual = 0.00387074, No Iterations 4
time step continuity errors : sum local = 5.13041e-05, global = 2.2785e-16, cumulative = 8.81166e-16
smoothSolver:  Solving for nuTilda, Initial residual = 0.00160426, Final residual = 4.9003e-05, No Iterations 4
ExecutionTime = 1.06 s  ClockTime = 1 s

Time = 67

smoothSolver:  Solving for Ux, Initial residual = 0.00671774, Final residual = 0.000426031, No Iterations 2
smoothSolver:  Solving for Uy, Initial residual = 0.00405976, Final residual = 0.000365321, No Iterations 2
GAMG:  Solving for p, Initial residual = 0.0990115, Final residual = 0.00683921, No Iterations 3
time step continuity errors : sum local = 8.95528e-05, global = -8.96793e-16, cumulative = -1.56272e-17
smoothSolver:  Solving for nuTilda, Initial residual = 0.00157928, Final residual = 4.87969e-05, No Iterations 4
ExecutionTime = 1.07 s  ClockTime = 1 s

Time = 68

smoothSolver:  Solving for Ux, Initial residual = 0.00652501, Final residual = 0.000411309, No Iterations 2
smoothSolver:  Solving for Uy, Initial residual = 0.00401947, Final residual = 0.000357284, No Iterations 2
GAMG:  Solving for p, Initial residual = 0.0954732, Final residual = 0.00694795, No Iterations 3
time step continuity errors : sum local = 9.07331e-05, global = -2.45244e-17, cumulative = -4.01515e-17
smoothSolver:  Solving for nuTilda, Initial residual = 0.00155341, Final residual = 4.85658e-05, No Iterations 4
ExecutionTime = 1.08 s  ClockTime = 1 s

Time = 69

smoothSolver:  Solving for Ux, Initial residual = 0.00638117, Final residual = 0.000397893, No Iterations 2
smoothSolver:  Solving for Uy, Initial residual = 0.00393318, Final residual = 0.000344901, No Iterations 2
GAMG:  Solving for p, Initial residual = 0.0908052, Final residual = 0.003537, No Iterations 4
time step continuity errors : sum local = 4.63218e-05, global = -2.57017e-17, cumulative = -6.58533e-17
smoothSolver:  Solving for nuTilda, Initial residual = 0.00152728, Final residual = 4.83076e-05, No Iterations 4
ExecutionTime = 1.09 s  ClockTime = 1 s

Time = 70

smoothSolver:  Solving for Ux, Initial residual = 0.00631708, Final residual = 0.000387132, No Iterations 2
smoothSolver:  Solving for Uy, Initial residual = 0.00375659, Final residual = 0.000328407, No Iterations 2
GAMG:  Solving for p, Initial residual = 0.086005, Final residual = 0.00338759, No Iterations 4
time step continuity errors : sum local = 4.42138e-05, global = -1.41959e-16, cumulative = -2.07812e-16
smoothSolver:  Solving for nuTilda, Initial residual = 0.0015011, Final residual = 4.8037e-05, No Iterations 4
ExecutionTime = 1.11 s  ClockTime = 1 s

Time = 71

smoothSolver:  Solving for Ux, Initial residual = 0.00627493, Final residual = 0.000378856, No Iterations 2
smoothSolver:  Solving for Uy, Initial residual = 0.00360584, Final residual = 0.000316427, No Iterations 2
GAMG:  Solving for p, Initial residual = 0.0818827, Final residual = 0.00590408, No Iterations 3
time step continuity errors : sum local = 7.61671e-05, global = 4.79145e-16, cumulative = 2.71333e-16
smoothSolver:  Solving for nuTilda, Initial residual = 0.00147434, Final residual = 4.77325e-05, No Iterations 4
ExecutionTime = 1.12 s  ClockTime = 1 s

Time = 72

smoothSolver:  Solving for Ux, Initial residual = 0.00614846, Final residual = 0.000369512, No Iterations 2
smoothSolver:  Solving for Uy, Initial residual = 0.00354665, Final residual = 0.000309758, No Iterations 2
GAMG:  Solving for p, Initial residual = 0.078585, Final residual = 0.00563079, No Iterations 3
time step continuity errors : sum local = 7.2436e-05, global = 1.27028e-16, cumulative = 3.98361e-16
smoothSolver:  Solving for nuTilda, Initial residual = 0.00144818, Final residual = 4.74348e-05, No Iterations 4
ExecutionTime = 1.14 s  ClockTime = 1 s

Time = 73

smoothSolver:  Solving for Ux, Initial residual = 0.00597428, Final residual = 0.000359713, No Iterations 2
smoothSolver:  Solving for Uy, Initial residual = 0.00355378, Final residual = 0.000305242, No Iterations 2
GAMG:  Solving for p, Initial residual = 0.0754534, Final residual = 0.00581064, No Iterations 3
time step continuity errors : sum local = 7.42286e-05, global = -1.46617e-16, cumulative = 2.51744e-16
smoothSolver:  Solving for nuTilda, Initial residual = 0.00142296, Final residual = 4.71268e-05, No Iterations 4
ExecutionTime = 1.15 s  ClockTime = 1 s

Time = 74

smoothSolver:  Solving for Ux, Initial residual = 0.005781, Final residual = 0.000349601, No Iterations 2
smoothSolver:  Solving for Uy, Initial residual = 0.00357145, Final residual = 0.00030014, No Iterations 2
GAMG:  Solving for p, Initial residual = 0.0731458, Final residual = 0.00578441, No Iterations 3
time step continuity errors : sum local = 7.35143e-05, global = 4.1963e-16, cumulative = 6.71374e-16
smoothSolver:  Solving for nuTilda, Initial residual = 0.00139828, Final residual = 4.68308e-05, No Iterations 4
ExecutionTime = 1.16 s  ClockTime = 1 s

Time = 75

smoothSolver:  Solving for Ux, Initial residual = 0.00560547, Final residual = 0.000339488, No Iterations 2
smoothSolver:  Solving for Uy, Initial residual = 0.00354012, Final residual = 0.000292933, No Iterations 2
GAMG:  Solving for p, Initial residual = 0.0704691, Final residual = 0.00552026, No Iterations 3
time step continuity errors : sum local = 6.98888e-05, global = -6.96254e-16, cumulative = -2.48795e-17
smoothSolver:  Solving for nuTilda, Initial residual = 0.00137383, Final residual = 4.65023e-05, No Iterations 4
ExecutionTime = 1.18 s  ClockTime = 1 s

Time = 76

smoothSolver:  Solving for Ux, Initial residual = 0.00548628, Final residual = 0.000330568, No Iterations 2
smoothSolver:  Solving for Uy, Initial residual = 0.00344451, Final residual = 0.000284471, No Iterations 2
GAMG:  Solving for p, Initial residual = 0.0672664, Final residual = 0.00523516, No Iterations 3
time step continuity errors : sum local = 6.61812e-05, global = 8.77024e-16, cumulative = 8.52144e-16
smoothSolver:  Solving for nuTilda, Initial residual = 0.00135053, Final residual = 4.61705e-05, No Iterations 4
ExecutionTime = 1.19 s  ClockTime = 1 s

Time = 77

smoothSolver:  Solving for Ux, Initial residual = 0.00540407, Final residual = 0.000322903, No Iterations 2
smoothSolver:  Solving for Uy, Initial residual = 0.00330414, Final residual = 0.000273891, No Iterations 2
GAMG:  Solving for p, Initial residual = 0.0637937, Final residual = 0.00529056, No Iterations 3
time step continuity errors : sum local = 6.65791e-05, global = -3.38027e-16, cumulative = 5.14117e-16
smoothSolver:  Solving for nuTilda, Initial residual = 0.00132812, Final residual = 4.58358e-05, No Iterations 4
ExecutionTime = 1.2 s  ClockTime = 1 s

Time = 78

smoothSolver:  Solving for Ux, Initial residual = 0.00531185, Final residual = 0.000315931, No Iterations 2
smoothSolver:  Solving for Uy, Initial residual = 0.00317724, Final residual = 0.000262587, No Iterations 2
GAMG:  Solving for p, Initial residual = 0.0611266, Final residual = 0.00543034, No Iterations 3
time step continuity errors : sum local = 6.81198e-05, global = 3.9198e-17, cumulative = 5.53315e-16
smoothSolver:  Solving for nuTilda, Initial residual = 0.00130684, Final residual = 4.55186e-05, No Iterations 4
ExecutionTime = 1.22 s  ClockTime = 1 s

Time = 79

smoothSolver:  Solving for Ux, Initial residual = 0.00518646, Final residual = 0.000308812, No Iterations 2
smoothSolver:  Solving for Uy, Initial residual = 0.00310927, Final residual = 0.000251438, No Iterations 2
GAMG:  Solving for p, Initial residual = 0.0584002, Final residual = 0.00489635, No Iterations 3
time step continuity errors : sum local = 6.12291e-05, global = -2.61128e-16, cumulative = 2.92188e-16
smoothSolver:  Solving for nuTilda, Initial residual = 0.00128667, Final residual = 4.52011e-05, No Iterations 4
ExecutionTime = 1.24 s  ClockTime = 1 s

Time = 80

smoothSolver:  Solving for Ux, Initial residual = 0.00502318, Final residual = 0.000301233, No Iterations 2
smoothSolver:  Solving for Uy, Initial residual = 0.00308281, Final residual = 0.000242656, No Iterations 2
GAMG:  Solving for p, Initial residual = 0.0553874, Final residual = 0.00418891, No Iterations 3
time step continuity errors : sum local = 5.23417e-05, global = -1.25745e-15, cumulative = -9.6526e-16
smoothSolver:  Solving for nuTilda, Initial residual = 0.00126648, Final residual = 4.48784e-05, No Iterations 4
ExecutionTime = 1.25 s  ClockTime = 1 s

Time = 81

smoothSolver:  Solving for Ux, Initial residual = 0.00483625, Final residual = 0.000293851, No Iterations 2
smoothSolver:  Solving for Uy, Initial residual = 0.00306496, Final residual = 0.000237851, No Iterations 2
GAMG:  Solving for p, Initial residual = 0.052752, Final residual = 0.00411189, No Iterations 3
time step continuity errors : sum local = 5.11439e-05, global = -3.87879e-16, cumulative = -1.35314e-15
smoothSolver:  Solving for nuTilda, Initial residual = 0.00124699, Final residual = 4.45714e-05, No Iterations 4
ExecutionTime = 1.26 s  ClockTime = 1 s

Time = 82

smoothSolver:  Solving for Ux, Initial residual = 0.00465247, Final residual = 0.000287094, No Iterations 2
smoothSolver:  Solving for Uy, Initial residual = 0.0030208, Final residual = 0.000235331, No Iterations 2
GAMG:  Solving for p, Initial residual = 0.0510932, Final residual = 0.00439711, No Iterations 3
time step continuity errors : sum local = 5.44494e-05, global = 3.17172e-16, cumulative = -1.03597e-15
smoothSolver:  Solving for nuTilda, Initial residual = 0.00122782, Final residual = 4.42915e-05, No Iterations 4
ExecutionTime = 1.28 s  ClockTime = 1 s

Time = 83

smoothSolver:  Solving for Ux, Initial residual = 0.00448962, Final residual = 0.000280642, No Iterations 2
smoothSolver:  Solving for Uy, Initial residual = 0.0029216, Final residual = 0.000229697, No Iterations 2
GAMG:  Solving for p, Initial residual = 0.0490796, Final residual = 0.00419244, No Iterations 3
time step continuity errors : sum local = 5.17486e-05, global = -2.83897e-17, cumulative = -1.06436e-15
smoothSolver:  Solving for nuTilda, Initial residual = 0.00120907, Final residual = 4.40174e-05, No Iterations 4
ExecutionTime = 1.29 s  ClockTime = 1 s

Time = 84

smoothSolver:  Solving for Ux, Initial residual = 0.00435404, Final residual = 0.000274952, No Iterations 2
smoothSolver:  Solving for Uy, Initial residual = 0.00279182, Final residual = 0.000219818, No Iterations 2
GAMG:  Solving for p, Initial residual = 0.0465711, Final residual = 0.0037127, No Iterations 4
time step continuity errors : sum local = 4.60634e-05, global = -3.66552e-17, cumulative = -1.10101e-15
smoothSolver:  Solving for nuTilda, Initial residual = 0.00119027, Final residual = 4.37584e-05, No Iterations 4
ExecutionTime = 1.3 s  ClockTime = 1 s

Time = 85

smoothSolver:  Solving for Ux, Initial residual = 0.00427329, Final residual = 0.000271568, No Iterations 2
smoothSolver:  Solving for Uy, Initial residual = 0.00268214, Final residual = 0.000208628, No Iterations 2
GAMG:  Solving for p, Initial residual = 0.0435117, Final residual = 0.00360277, No Iterations 3
time step continuity errors : sum local = 4.43531e-05, global = -7.66826e-16, cumulative = -1.86784e-15
smoothSolver:  Solving for nuTilda, Initial residual = 0.0011717, Final residual = 4.34998e-05, No Iterations 4
ExecutionTime = 1.32 s  ClockTime = 1 s

Time = 86

smoothSolver:  Solving for Ux, Initial residual = 0.00412347, Final residual = 0.000266474, No Iterations 2
smoothSolver:  Solving for Uy, Initial residual = 0.00264961, Final residual = 0.000203699, No Iterations 2
GAMG:  Solving for p, Initial residual = 0.0420011, Final residual = 0.00378595, No Iterations 3
time step continuity errors : sum local = 4.64901e-05, global = -5.05036e-16, cumulative = -2.37287e-15
smoothSolver:  Solving for nuTilda, Initial residual = 0.00115295, Final residual = 4.32664e-05, No Iterations 4
ExecutionTime = 1.33 s  ClockTime = 1 s

Time = 87

smoothSolver:  Solving for Ux, Initial residual = 0.003946, Final residual = 0.000260842, No Iterations 2
smoothSolver:  Solving for Uy, Initial residual = 0.00263651, Final residual = 0.000201782, No Iterations 2
GAMG:  Solving for p, Initial residual = 0.0404484, Final residual = 0.00356527, No Iterations 3
time step continuity errors : sum local = 4.36349e-05, global = 3.57145e-16, cumulative = -2.01573e-15
smoothSolver:  Solving for nuTilda, Initial residual = 0.00113527, Final residual = 4.3044e-05, No Iterations 4
ExecutionTime = 1.34 s  ClockTime = 1 s

Time = 88

smoothSolver:  Solving for Ux, Initial residual = 0.00377327, Final residual = 0.000255244, No Iterations 2
smoothSolver:  Solving for Uy, Initial residual = 0.00262196, Final residual = 0.000201162, No Iterations 2
GAMG:  Solving for p, Initial residual = 0.0385051, Final residual = 0.00171945, No Iterations 4
time step continuity errors : sum local = 2.08722e-05, global = -6.7129e-16, cumulative = -2.68702e-15
smoothSolver:  Solving for nuTilda, Initial residual = 0.00111756, Final residual = 4.2837e-05, No Iterations 4
ExecutionTime = 1.36 s  ClockTime = 1 s

Time = 89

smoothSolver:  Solving for Ux, Initial residual = 0.00363493, Final residual = 0.000250423, No Iterations 2
smoothSolver:  Solving for Uy, Initial residual = 0.00255998, Final residual = 0.000196865, No Iterations 2
GAMG:  Solving for p, Initial residual = 0.0360177, Final residual = 0.00339667, No Iterations 3
time step continuity errors : sum local = 4.12102e-05, global = 4.40976e-16, cumulative = -2.24604e-15
smoothSolver:  Solving for nuTilda, Initial residual = 0.00110037, Final residual = 4.26174e-05, No Iterations 4
ExecutionTime = 1.37 s  ClockTime = 1 s

Time = 90

smoothSolver:  Solving for Ux, Initial residual = 0.00349552, Final residual = 0.000245375, No Iterations 2
smoothSolver:  Solving for Uy, Initial residual = 0.0024633, Final residual = 0.000188814, No Iterations 2
GAMG:  Solving for p, Initial residual = 0.0348309, Final residual = 0.00243301, No Iterations 5
time step continuity errors : sum local = 2.97325e-05, global = 1.80266e-16, cumulative = -2.06578e-15
smoothSolver:  Solving for nuTilda, Initial residual = 0.00108368, Final residual = 4.24083e-05, No Iterations 4
ExecutionTime = 1.39 s  ClockTime = 1 s

Time = 91

smoothSolver:  Solving for Ux, Initial residual = 0.00339745, Final residual = 0.000241789, No Iterations 2
smoothSolver:  Solving for Uy, Initial residual = 0.00231216, Final residual = 0.00017636, No Iterations 2
GAMG:  Solving for p, Initial residual = 0.0323813, Final residual = 0.00283689, No Iterations 3
time step continuity errors : sum local = 3.44387e-05, global = -6.47083e-16, cumulative = -2.71286e-15
smoothSolver:  Solving for nuTilda, Initial residual = 0.00106758, Final residual = 4.2183e-05, No Iterations 4
ExecutionTime = 1.41 s  ClockTime = 1 s

Time = 92

smoothSolver:  Solving for Ux, Initial residual = 0.003258, Final residual = 0.000237217, No Iterations 2
smoothSolver:  Solving for Uy, Initial residual = 0.00225701, Final residual = 0.000170365, No Iterations 2
GAMG:  Solving for p, Initial residual = 0.0310891, Final residual = 0.00281193, No Iterations 3
time step continuity errors : sum local = 3.41561e-05, global = 1.30782e-17, cumulative = -2.69978e-15
smoothSolver:  Solving for nuTilda, Initial residual = 0.00105163, Final residual = 4.19469e-05, No Iterations 4
ExecutionTime = 1.42 s  ClockTime = 1 s

Time = 93

smoothSolver:  Solving for Ux, Initial residual = 0.00311717, Final residual = 0.000232801, No Iterations 2
smoothSolver:  Solving for Uy, Initial residual = 0.00223397, Final residual = 0.000167607, No Iterations 2
GAMG:  Solving for p, Initial residual = 0.0300223, Final residual = 0.00297783, No Iterations 3
time step continuity errors : sum local = 3.60648e-05, global = -3.18519e-16, cumulative = -3.0183e-15
smoothSolver:  Solving for nuTilda, Initial residual = 0.00103612, Final residual = 4.1697e-05, No Iterations 4
ExecutionTime = 1.44 s  ClockTime = 1 s

Time = 94

smoothSolver:  Solving for Ux, Initial residual = 0.00298612, Final residual = 0.000228567, No Iterations 2
smoothSolver:  Solving for Uy, Initial residual = 0.00221904, Final residual = 0.000166943, No Iterations 2
GAMG:  Solving for p, Initial residual = 0.0290642, Final residual = 0.00281333, No Iterations 3
time step continuity errors : sum local = 3.40419e-05, global = 7.0318e-17, cumulative = -2.94798e-15
smoothSolver:  Solving for nuTilda, Initial residual = 0.00102083, Final residual = 4.14526e-05, No Iterations 4
ExecutionTime = 1.45 s  ClockTime = 1 s

Time = 95

smoothSolver:  Solving for Ux, Initial residual = 0.00286698, Final residual = 0.000224174, No Iterations 2
smoothSolver:  Solving for Uy, Initial residual = 0.0021807, Final residual = 0.000164884, No Iterations 2
GAMG:  Solving for p, Initial residual = 0.0273532, Final residual = 0.00269673, No Iterations 3
time step continuity errors : sum local = 3.2544e-05, global = -5.19235e-16, cumulative = -3.46722e-15
smoothSolver:  Solving for nuTilda, Initial residual = 0.00100651, Final residual = 4.11981e-05, No Iterations 4
ExecutionTime = 1.46 s  ClockTime = 1 s

Time = 96

smoothSolver:  Solving for Ux, Initial residual = 0.00274984, Final residual = 0.000219418, No Iterations 2
smoothSolver:  Solving for Uy, Initial residual = 0.00210373, Final residual = 0.00015978, No Iterations 2
GAMG:  Solving for p, Initial residual = 0.025984, Final residual = 0.0020814, No Iterations 5
time step continuity errors : sum local = 2.52689e-05, global = 3.91852e-16, cumulative = -3.07537e-15
smoothSolver:  Solving for nuTilda, Initial residual = 0.0009925, Final residual = 4.09336e-05, No Iterations 4
ExecutionTime = 1.48 s  ClockTime = 1 s

Time = 97

smoothSolver:  Solving for Ux, Initial residual = 0.00265216, Final residual = 0.000215038, No Iterations 2
smoothSolver:  Solving for Uy, Initial residual = 0.00196907, Final residual = 0.000149845, No Iterations 2
GAMG:  Solving for p, Initial residual = 0.0241438, Final residual = 0.00173831, No Iterations 5
time step continuity errors : sum local = 2.11205e-05, global = 1.52268e-16, cumulative = -2.9231e-15
smoothSolver:  Solving for nuTilda, Initial residual = 0.00097902, Final residual = 4.06603e-05, No Iterations 4
ExecutionTime = 1.49 s  ClockTime = 1 s

Time = 98

smoothSolver:  Solving for Ux, Initial residual = 0.00252478, Final residual = 0.000209776, No Iterations 2
smoothSolver:  Solving for Uy, Initial residual = 0.00187678, Final residual = 0.000141142, No Iterations 2
GAMG:  Solving for p, Initial residual = 0.022919, Final residual = 0.00192026, No Iterations 3
time step continuity errors : sum local = 2.32028e-05, global = 7.74164e-16, cumulative = -2.14893e-15
smoothSolver:  Solving for nuTilda, Initial residual = 0.000965952, Final residual = 4.03935e-05, No Iterations 4
ExecutionTime = 1.51 s  ClockTime = 1 s

Time = 99

smoothSolver:  Solving for Ux, Initial residual = 0.00238475, Final residual = 0.000204142, No Iterations 2
smoothSolver:  Solving for Uy, Initial residual = 0.00183688, Final residual = 0.00013591, No Iterations 2
GAMG:  Solving for p, Initial residual = 0.0220949, Final residual = 0.0020679, No Iterations 3
time step continuity errors : sum local = 2.49324e-05, global = -2.53721e-16, cumulative = -2.40265e-15
smoothSolver:  Solving for nuTilda, Initial residual = 0.000953794, Final residual = 4.01144e-05, No Iterations 4
ExecutionTime = 1.52 s  ClockTime = 1 s

Time = 100

smoothSolver:  Solving for Ux, Initial residual = 0.00227179, Final residual = 0.000199148, No Iterations 2
smoothSolver:  Solving for Uy, Initial residual = 0.00179748, Final residual = 0.000131617, No Iterations 2
GAMG:  Solving for p, Initial residual = 0.0214279, Final residual = 0.00151885, No Iterations 5
time step continuity errors : sum local = 1.85075e-05, global = 1.53867e-17, cumulative = -2.38727e-15
smoothSolver:  Solving for nuTilda, Initial residual = 0.000942178, Final residual = 3.98319e-05, No Iterations 4
ExecutionTime = 1.56 s  ClockTime = 2 s

Time = 101

smoothSolver:  Solving for Ux, Initial residual = 0.00219924, Final residual = 0.000195448, No Iterations 2
smoothSolver:  Solving for Uy, Initial residual = 0.00173282, Final residual = 0.000126942, No Iterations 2
GAMG:  Solving for p, Initial residual = 0.0199824, Final residual = 0.00198781, No Iterations 3
time step continuity errors : sum local = 2.39113e-05, global = -2.32529e-16, cumulative = -2.6198e-15
smoothSolver:  Solving for nuTilda, Initial residual = 0.000930904, Final residual = 3.95365e-05, No Iterations 4
ExecutionTime = 1.58 s  ClockTime = 2 s

Time = 102

smoothSolver:  Solving for Ux, Initial residual = 0.00210967, Final residual = 0.000190592, No Iterations 2
smoothSolver:  Solving for Uy, Initial residual = 0.0016652, Final residual = 0.000121627, No Iterations 2
GAMG:  Solving for p, Initial residual = 0.0196828, Final residual = 0.00100956, No Iterations 4
time step continuity errors : sum local = 1.22706e-05, global = -1.43643e-18, cumulative = -2.62123e-15
smoothSolver:  Solving for nuTilda, Initial residual = 0.000920096, Final residual = 3.92475e-05, No Iterations 4
ExecutionTime = 1.59 s  ClockTime = 2 s

Time = 103

smoothSolver:  Solving for Ux, Initial residual = 0.00201977, Final residual = 0.000185908, No Iterations 2
smoothSolver:  Solving for Uy, Initial residual = 0.00157223, Final residual = 0.000114795, No Iterations 2
GAMG:  Solving for p, Initial residual = 0.0184405, Final residual = 0.00141905, No Iterations 5
time step continuity errors : sum local = 1.72124e-05, global = -1.79524e-16, cumulative = -2.80076e-15
smoothSolver:  Solving for nuTilda, Initial residual = 0.000910132, Final residual = 3.89504e-05, No Iterations 4
ExecutionTime = 1.61 s  ClockTime = 2 s

Time = 104

smoothSolver:  Solving for Ux, Initial residual = 0.00192343, Final residual = 0.000181225, No Iterations 2
smoothSolver:  Solving for Uy, Initial residual = 0.00148812, Final residual = 0.000108407, No Iterations 2
GAMG:  Solving for p, Initial residual = 0.0172288, Final residual = 0.00148108, No Iterations 4
time step continuity errors : sum local = 1.79326e-05, global = 1.08272e-15, cumulative = -1.71804e-15
smoothSolver:  Solving for nuTilda, Initial residual = 0.000900402, Final residual = 3.86493e-05, No Iterations 4
ExecutionTime = 1.62 s  ClockTime = 2 s

Time = 105

smoothSolver:  Solving for Ux, Initial residual = 0.00182649, Final residual = 0.000176283, No Iterations 2
smoothSolver:  Solving for Uy, Initial residual = 0.00142855, Final residual = 0.000102913, No Iterations 2
GAMG:  Solving for p, Initial residual = 0.016246, Final residual = 0.0015304, No Iterations 3
time step continuity errors : sum local = 1.84104e-05, global = 7.40323e-17, cumulative = -1.64401e-15
smoothSolver:  Solving for nuTilda, Initial residual = 0.000891272, Final residual = 3.83368e-05, No Iterations 4
ExecutionTime = 1.63 s  ClockTime = 2 s

Time = 106

smoothSolver:  Solving for Ux, Initial residual = 0.00175342, Final residual = 0.000171584, No Iterations 2
smoothSolver:  Solving for Uy, Initial residual = 0.00137599, Final residual = 9.78866e-05, No Iterations 2
GAMG:  Solving for p, Initial residual = 0.0156641, Final residual = 0.00132002, No Iterations 4
time step continuity errors : sum local = 1.59801e-05, global = -1.92201e-16, cumulative = -1.83621e-15
smoothSolver:  Solving for nuTilda, Initial residual = 0.000882397, Final residual = 3.80309e-05, No Iterations 4
ExecutionTime = 1.65 s  ClockTime = 2 s

Time = 107

smoothSolver:  Solving for Ux, Initial residual = 0.00170867, Final residual = 0.000167423, No Iterations 2
smoothSolver:  Solving for Uy, Initial residual = 0.00132192, Final residual = 9.25235e-05, No Iterations 2
GAMG:  Solving for p, Initial residual = 0.0146661, Final residual = 0.00143441, No Iterations 3
time step continuity errors : sum local = 1.72466e-05, global = -3.48772e-16, cumulative = -2.18498e-15
smoothSolver:  Solving for nuTilda, Initial residual = 0.000874347, Final residual = 3.7719e-05, No Iterations 4
ExecutionTime = 1.66 s  ClockTime = 2 s

Time = 108

smoothSolver:  Solving for Ux, Initial residual = 0.00165901, Final residual = 0.000163261, No Iterations 2
smoothSolver:  Solving for Uy, Initial residual = 0.00127257, Final residual = 8.76788e-05, No Iterations 2
GAMG:  Solving for p, Initial residual = 0.0142129, Final residual = 0.00135852, No Iterations 4
time step continuity errors : sum local = 1.64235e-05, global = 5.58471e-16, cumulative = -1.62651e-15
smoothSolver:  Solving for nuTilda, Initial residual = 0.000866506, Final residual = 3.74063e-05, No Iterations 4
ExecutionTime = 1.67 s  ClockTime = 2 s

Time = 109

smoothSolver:  Solving for Ux, Initial residual = 0.00160217, Final residual = 0.00015943, No Iterations 2
smoothSolver:  Solving for Uy, Initial residual = 0.00123212, Final residual = 8.36612e-05, No Iterations 2
GAMG:  Solving for p, Initial residual = 0.0136514, Final residual = 0.00130386, No Iterations 3
time step continuity errors : sum local = 1.56771e-05, global = -3.32451e-16, cumulative = -1.95896e-15
smoothSolver:  Solving for nuTilda, Initial residual = 0.000858901, Final residual = 3.7082e-05, No Iterations 4
ExecutionTime = 1.69 s  ClockTime = 2 s

Time = 110

smoothSolver:  Solving for Ux, Initial residual = 0.00153871, Final residual = 2.72128e-05, No Iterations 4
smoothSolver:  Solving for Uy, Initial residual = 0.00119804, Final residual = 8.00376e-05, No Iterations 2
GAMG:  Solving for p, Initial residual = 0.0136142, Final residual = 0.00129025, No Iterations 4
time step continuity errors : sum local = 1.55961e-05, global = -6.50441e-17, cumulative = -2.024e-15
smoothSolver:  Solving for nuTilda, Initial residual = 0.000851766, Final residual = 3.67797e-05, No Iterations 4
ExecutionTime = 1.7 s  ClockTime = 2 s

Time = 111

smoothSolver:  Solving for Ux, Initial residual = 0.00149069, Final residual = 2.66235e-05, No Iterations 4
smoothSolver:  Solving for Uy, Initial residual = 0.00116899, Final residual = 7.74326e-05, No Iterations 2
GAMG:  Solving for p, Initial residual = 0.0127769, Final residual = 0.000878683, No Iterations 5
time step continuity errors : sum local = 1.06584e-05, global = 9.51055e-17, cumulative = -1.9289e-15
smoothSolver:  Solving for nuTilda, Initial residual = 0.000845329, Final residual = 3.6471e-05, No Iterations 4
ExecutionTime = 1.72 s  ClockTime = 2 s

Time = 112

smoothSolver:  Solving for Ux, Initial residual = 0.00147146, Final residual = 2.6036e-05, No Iterations 4
smoothSolver:  Solving for Uy, Initial residual = 0.00112988, Final residual = 7.42078e-05, No Iterations 2
GAMG:  Solving for p, Initial residual = 0.0117361, Final residual = 0.000578874, No Iterations 4
time step continuity errors : sum local = 7.03054e-06, global = -1.88267e-16, cumulative = -2.11716e-15
smoothSolver:  Solving for nuTilda, Initial residual = 0.000838862, Final residual = 3.61574e-05, No Iterations 4
ExecutionTime = 1.73 s  ClockTime = 2 s

Time = 113

smoothSolver:  Solving for Ux, Initial residual = 0.00145442, Final residual = 0.000143509, No Iterations 2
smoothSolver:  Solving for Uy, Initial residual = 0.00108027, Final residual = 6.98662e-05, No Iterations 2
GAMG:  Solving for p, Initial residual = 0.0110402, Final residual = 0.00105995, No Iterations 3
time step continuity errors : sum local = 1.27602e-05, global = -4.84804e-17, cumulative = -2.16564e-15
smoothSolver:  Solving for nuTilda, Initial residual = 0.000832234, Final residual = 3.58213e-05, No Iterations 4
ExecutionTime = 1.75 s  ClockTime = 2 s

Time = 114

smoothSolver:  Solving for Ux, Initial residual = 0.00142695, Final residual = 0.000140781, No Iterations 2
smoothSolver:  Solving for Uy, Initial residual = 0.00103421, Final residual = 6.49512e-05, No Iterations 2
GAMG:  Solving for p, Initial residual = 0.0104308, Final residual = 0.000920737, No Iterations 3
time step continuity errors : sum local = 1.10894e-05, global = -5.06744e-16, cumulative = -2.67239e-15
smoothSolver:  Solving for nuTilda, Initial residual = 0.000825549, Final residual = 3.54917e-05, No Iterations 4
ExecutionTime = 1.76 s  ClockTime = 2 s

Time = 115

smoothSolver:  Solving for Ux, Initial residual = 0.00139074, Final residual = 0.000138262, No Iterations 2
smoothSolver:  Solving for Uy, Initial residual = 0.00101373, Final residual = 6.12316e-05, No Iterations 2
GAMG:  Solving for p, Initial residual = 0.00962247, Final residual = 0.000778319, No Iterations 4
time step continuity errors : sum local = 9.41872e-06, global = -3.18064e-16, cumulative = -2.99045e-15
smoothSolver:  Solving for nuTilda, Initial residual = 0.000819314, Final residual = 3.51567e-05, No Iterations 4
ExecutionTime = 1.77 s  ClockTime = 2 s

Time = 116

smoothSolver:  Solving for Ux, Initial residual = 0.00135076, Final residual = 2.44788e-05, No Iterations 4
smoothSolver:  Solving for Uy, Initial residual = 0.00101175, Final residual = 5.97247e-05, No Iterations 2
GAMG:  Solving for p, Initial residual = 0.00983336, Final residual = 0.000636911, No Iterations 4
time step continuity errors : sum local = 7.72246e-06, global = 1.81469e-16, cumulative = -2.80898e-15
smoothSolver:  Solving for nuTilda, Initial residual = 0.000813336, Final residual = 3.48314e-05, No Iterations 4
ExecutionTime = 1.8 s  ClockTime = 2 s

Time = 117

smoothSolver:  Solving for Ux, Initial residual = 0.00131355, Final residual = 2.40116e-05, No Iterations 4
smoothSolver:  Solving for Uy, Initial residual = 0.00101331, Final residual = 5.97785e-05, No Iterations 2
GAMG:  Solving for p, Initial residual = 0.00914652, Final residual = 0.000873577, No Iterations 3
time step continuity errors : sum local = 1.05126e-05, global = -5.32469e-16, cumulative = -3.34145e-15
smoothSolver:  Solving for nuTilda, Initial residual = 0.000807393, Final residual = 3.44976e-05, No Iterations 4
ExecutionTime = 1.81 s  ClockTime = 2 s

Time = 118

smoothSolver:  Solving for Ux, Initial residual = 0.00128447, Final residual = 2.35558e-05, No Iterations 4
smoothSolver:  Solving for Uy, Initial residual = 0.00100109, Final residual = 5.94284e-05, No Iterations 2
GAMG:  Solving for p, Initial residual = 0.00870912, Final residual = 0.000395526, No Iterations 4
time step continuity errors : sum local = 4.80269e-06, global = -6.46492e-16, cumulative = -3.98794e-15
smoothSolver:  Solving for nuTilda, Initial residual = 0.000801086, Final residual = 3.41644e-05, No Iterations 4
ExecutionTime = 1.82 s  ClockTime = 2 s

Time = 119

smoothSolver:  Solving for Ux, Initial residual = 0.00126671, Final residual = 2.30934e-05, No Iterations 4
smoothSolver:  Solving for Uy, Initial residual = 0.000974678, Final residual = 5.76781e-05, No Iterations 2
GAMG:  Solving for p, Initial residual = 0.00819289, Final residual = 0.00044199, No Iterations 4
time step continuity errors : sum local = 5.36544e-06, global = -1.19998e-15, cumulative = -5.18793e-15
smoothSolver:  Solving for nuTilda, Initial residual = 0.000794996, Final residual = 3.38264e-05, No Iterations 4
ExecutionTime = 1.84 s  ClockTime = 2 s

Time = 120

smoothSolver:  Solving for Ux, Initial residual = 0.00125031, Final residual = 0.000124934, No Iterations 2
smoothSolver:  Solving for Uy, Initial residual = 0.000950485, Final residual = 5.53043e-05, No Iterations 2
GAMG:  Solving for p, Initial residual = 0.0079625, Final residual = 0.000404051, No Iterations 4
time step continuity errors : sum local = 4.89654e-06, global = 5.15336e-17, cumulative = -5.1364e-15
smoothSolver:  Solving for nuTilda, Initial residual = 0.000788275, Final residual = 3.3476e-05, No Iterations 4
ExecutionTime = 1.85 s  ClockTime = 2 s

Time = 121

smoothSolver:  Solving for Ux, Initial residual = 0.00122926, Final residual = 2.25688e-05, No Iterations 4
smoothSolver:  Solving for Uy, Initial residual = 0.000942386, Final residual = 5.29963e-05, No Iterations 2
GAMG:  Solving for p, Initial residual = 0.00698879, Final residual = 0.000239801, No Iterations 5
time step continuity errors : sum local = 2.88275e-06, global = -1.89051e-16, cumulative = -5.32545e-15
smoothSolver:  Solving for nuTilda, Initial residual = 0.000781664, Final residual = 3.31241e-05, No Iterations 4
ExecutionTime = 1.87 s  ClockTime = 2 s

Time = 122

smoothSolver:  Solving for Ux, Initial residual = 0.00120002, Final residual = 2.23259e-05, No Iterations 4
smoothSolver:  Solving for Uy, Initial residual = 0.00095006, Final residual = 5.28269e-05, No Iterations 2
GAMG:  Solving for p, Initial residual = 0.00698381, Final residual = 0.000292304, No Iterations 4
time step continuity errors : sum local = 3.53576e-06, global = 6.41787e-16, cumulative = -4.68366e-15
smoothSolver:  Solving for nuTilda, Initial residual = 0.000774446, Final residual = 3.27724e-05, No Iterations 4
ExecutionTime = 1.88 s  ClockTime = 2 s

Time = 123

smoothSolver:  Solving for Ux, Initial residual = 0.00116441, Final residual = 2.20443e-05, No Iterations 4
smoothSolver:  Solving for Uy, Initial residual = 0.000945471, Final residual = 5.26623e-05, No Iterations 2
GAMG:  Solving for p, Initial residual = 0.00643629, Final residual = 0.000329455, No Iterations 4
time step continuity errors : sum local = 3.99196e-06, global = 7.26575e-16, cumulative = -3.95709e-15
smoothSolver:  Solving for nuTilda, Initial residual = 0.000767255, Final residual = 3.24167e-05, No Iterations 4
ExecutionTime = 1.89 s  ClockTime = 2 s

Time = 124

smoothSolver:  Solving for Ux, Initial residual = 0.00112548, Final residual = 2.17653e-05, No Iterations 4
smoothSolver:  Solving for Uy, Initial residual = 0.000923005, Final residual = 5.13967e-05, No Iterations 2
GAMG:  Solving for p, Initial residual = 0.00614729, Final residual = 0.000340281, No Iterations 4
time step continuity errors : sum local = 4.11803e-06, global = 1.92589e-16, cumulative = -3.7645e-15
smoothSolver:  Solving for nuTilda, Initial residual = 0.000759709, Final residual = 3.20572e-05, No Iterations 4
ExecutionTime = 1.91 s  ClockTime = 2 s

Time = 125

smoothSolver:  Solving for Ux, Initial residual = 0.0010869, Final residual = 2.1481e-05, No Iterations 4
smoothSolver:  Solving for Uy, Initial residual = 0.000881507, Final residual = 4.82444e-05, No Iterations 2
GAMG:  Solving for p, Initial residual = 0.00586421, Final residual = 0.000336425, No Iterations 4
time step continuity errors : sum local = 4.07268e-06, global = 7.5982e-16, cumulative = -3.00468e-15
smoothSolver:  Solving for nuTilda, Initial residual = 0.0007517, Final residual = 3.16893e-05, No Iterations 4
ExecutionTime = 1.92 s  ClockTime = 2 s

Time = 126

smoothSolver:  Solving for Ux, Initial residual = 0.00105282, Final residual = 2.12083e-05, No Iterations 4
smoothSolver:  Solving for Uy, Initial residual = 0.000837919, Final residual = 4.45845e-05, No Iterations 2
GAMG:  Solving for p, Initial residual = 0.00545985, Final residual = 0.000255178, No Iterations 4
time step continuity errors : sum local = 3.08881e-06, global = -3.73721e-16, cumulative = -3.3784e-15
smoothSolver:  Solving for nuTilda, Initial residual = 0.000743283, Final residual = 3.13211e-05, No Iterations 4
ExecutionTime = 1.94 s  ClockTime = 2 s

Time = 127

smoothSolver:  Solving for Ux, Initial residual = 0.00102664, Final residual = 2.09782e-05, No Iterations 4
smoothSolver:  Solving for Uy, Initial residual = 0.000809491, Final residual = 4.22517e-05, No Iterations 2
GAMG:  Solving for p, Initial residual = 0.00504927, Final residual = 0.000461503, No Iterations 3
time step continuity errors : sum local = 5.55835e-06, global = -3.10824e-16, cumulative = -3.68922e-15
smoothSolver:  Solving for nuTilda, Initial residual = 0.000734751, Final residual = 3.09518e-05, No Iterations 4
ExecutionTime = 1.95 s  ClockTime = 2 s

Time = 128

smoothSolver:  Solving for Ux, Initial residual = 0.00100542, Final residual = 2.07434e-05, No Iterations 4
smoothSolver:  Solving for Uy, Initial residual = 0.000799786, Final residual = 4.16446e-05, No Iterations 2
GAMG:  Solving for p, Initial residual = 0.00491512, Final residual = 0.000276325, No Iterations 4
time step continuity errors : sum local = 3.33929e-06, global = 6.99438e-17, cumulative = -3.61928e-15
smoothSolver:  Solving for nuTilda, Initial residual = 0.000725816, Final residual = 3.05801e-05, No Iterations 4
ExecutionTime = 1.97 s  ClockTime = 2 s

Time = 129

smoothSolver:  Solving for Ux, Initial residual = 0.00098898, Final residual = 2.05071e-05, No Iterations 4
smoothSolver:  Solving for Uy, Initial residual = 0.000800394, Final residual = 4.19796e-05, No Iterations 2
GAMG:  Solving for p, Initial residual = 0.00470058, Final residual = 0.00028468, No Iterations 4
time step continuity errors : sum local = 3.44856e-06, global = -2.8559e-16, cumulative = -3.90487e-15
smoothSolver:  Solving for nuTilda, Initial residual = 0.00071668, Final residual = 3.01996e-05, No Iterations 4
ExecutionTime = 1.98 s  ClockTime = 2 s

Time = 130

smoothSolver:  Solving for Ux, Initial residual = 0.000969911, Final residual = 2.02558e-05, No Iterations 4
smoothSolver:  Solving for Uy, Initial residual = 0.000798063, Final residual = 4.19478e-05, No Iterations 2
GAMG:  Solving for p, Initial residual = 0.00452323, Final residual = 0.000447315, No Iterations 3
time step continuity errors : sum local = 5.38433e-06, global = 1.77515e-16, cumulative = -3.72735e-15
smoothSolver:  Solving for nuTilda, Initial residual = 0.000706935, Final residual = 2.98186e-05, No Iterations 4
ExecutionTime = 2 s  ClockTime = 2 s

Time = 131

smoothSolver:  Solving for Ux, Initial residual = 0.000945024, Final residual = 2.0001e-05, No Iterations 4
smoothSolver:  Solving for Uy, Initial residual = 0.000783372, Final residual = 4.08387e-05, No Iterations 2
GAMG:  Solving for p, Initial residual = 0.00439129, Final residual = 0.000294351, No Iterations 4
time step continuity errors : sum local = 3.55934e-06, global = -6.02412e-16, cumulative = -4.32976e-15
smoothSolver:  Solving for nuTilda, Initial residual = 0.000697173, Final residual = 2.94383e-05, No Iterations 4
ExecutionTime = 2.01 s  ClockTime = 2 s

Time = 132

smoothSolver:  Solving for Ux, Initial residual = 0.000918097, Final residual = 1.97485e-05, No Iterations 4
smoothSolver:  Solving for Uy, Initial residual = 0.000752225, Final residual = 3.89046e-05, No Iterations 2
GAMG:  Solving for p, Initial residual = 0.00427314, Final residual = 0.000158521, No Iterations 5
time step continuity errors : sum local = 1.92174e-06, global = -3.60625e-16, cumulative = -4.69039e-15
smoothSolver:  Solving for nuTilda, Initial residual = 0.00068722, Final residual = 2.90579e-05, No Iterations 4
ExecutionTime = 2.03 s  ClockTime = 2 s

Time = 133

smoothSolver:  Solving for Ux, Initial residual = 0.00089265, Final residual = 1.94971e-05, No Iterations 4
smoothSolver:  Solving for Uy, Initial residual = 0.000711427, Final residual = 3.68576e-05, No Iterations 2
GAMG:  Solving for p, Initial residual = 0.00390984, Final residual = 0.00028299, No Iterations 4
time step continuity errors : sum local = 3.41746e-06, global = 9.87779e-16, cumulative = -3.70261e-15
smoothSolver:  Solving for nuTilda, Initial residual = 0.000677124, Final residual = 2.86696e-05, No Iterations 4
ExecutionTime = 2.04 s  ClockTime = 2 s

Time = 134

smoothSolver:  Solving for Ux, Initial residual = 0.000869011, Final residual = 1.92497e-05, No Iterations 4
[...]

Time = 467

smoothSolver:  Solving for Ux, Initial residual = 7.64363e-07, Final residual = 6.48903e-08, No Iterations 2
smoothSolver:  Solving for Uy, Initial residual = 1.39957e-06, Final residual = 1.24626e-07, No Iterations 2
GAMG:  Solving for p, Initial residual = 0.000347462, Final residual = 1.663e-05, No Iterations 2
time step continuity errors : sum local = 2.15074e-07, global = 3.86886e-16, cumulative = -9.74048e-15
smoothSolver:  Solving for nuTilda, Initial residual = 3.18295e-07, Final residual = 8.86926e-09, No Iterations 2
ExecutionTime = 7.08 s  ClockTime = 7 s

Time = 468

smoothSolver:  Solving for Ux, Initial residual = 7.48836e-07, Final residual = 6.34131e-08, No Iterations 2
smoothSolver:  Solving for Uy, Initial residual = 1.37031e-06, Final residual = 1.2251e-07, No Iterations 2
GAMG:  Solving for p, Initial residual = 0.000350461, Final residual = 1.67001e-05, No Iterations 2
time step continuity errors : sum local = 2.16191e-07, global = -9.90098e-16, cumulative = -1.07306e-14
smoothSolver:  Solving for nuTilda, Initial residual = 1.96714e-07, Final residual = 8.71314e-09, No Iterations 2
ExecutionTime = 7.1 s  ClockTime = 7 s

Time = 469

smoothSolver:  Solving for Ux, Initial residual = 7.64024e-07, Final residual = 6.48717e-08, No Iterations 2
smoothSolver:  Solving for Uy, Initial residual = 1.39761e-06, Final residual = 1.24489e-07, No Iterations 2
GAMG:  Solving for p, Initial residual = 0.000347679, Final residual = 1.66266e-05, No Iterations 2
time step continuity errors : sum local = 2.15037e-07, global = -4.18066e-16, cumulative = -1.11486e-14
smoothSolver:  Solving for nuTilda, Initial residual = 3.18096e-07, Final residual = 8.83943e-09, No Iterations 2
ExecutionTime = 7.12 s  ClockTime = 7 s

Time = 470

smoothSolver:  Solving for Ux, Initial residual = 7.48111e-07, Final residual = 6.33898e-08, No Iterations 2
smoothSolver:  Solving for Uy, Initial residual = 1.37171e-06, Final residual = 1.22494e-07, No Iterations 2
GAMG:  Solving for p, Initial residual = 0.000350674, Final residual = 1.67027e-05, No Iterations 2
time step continuity errors : sum local = 2.16231e-07, global = 1.32607e-17, cumulative = -1.11354e-14
smoothSolver:  Solving for nuTilda, Initial residual = 1.96462e-07, Final residual = 8.68378e-09, No Iterations 2
ExecutionTime = 7.13 s  ClockTime = 7 s

Time = 471

smoothSolver:  Solving for Ux, Initial residual = 7.64276e-07, Final residual = 6.48624e-08, No Iterations 2
smoothSolver:  Solving for Uy, Initial residual = 1.39684e-06, Final residual = 1.24406e-07, No Iterations 2
GAMG:  Solving for p, Initial residual = 0.000347893, Final residual = 1.6619e-05, No Iterations 2
time step continuity errors : sum local = 2.14948e-07, global = 6.24977e-16, cumulative = -1.05104e-14
smoothSolver:  Solving for nuTilda, Initial residual = 3.17896e-07, Final residual = 8.81025e-09, No Iterations 2
ExecutionTime = 7.14 s  ClockTime = 7 s

Time = 472

smoothSolver:  Solving for Ux, Initial residual = 7.4745e-07, Final residual = 6.33654e-08, No Iterations 2
smoothSolver:  Solving for Uy, Initial residual = 1.3736e-06, Final residual = 1.22483e-07, No Iterations 2
GAMG:  Solving for p, Initial residual = 0.000350871, Final residual = 1.67033e-05, No Iterations 2
time step continuity errors : sum local = 2.16246e-07, global = -5.97604e-16, cumulative = -1.1108e-14
smoothSolver:  Solving for nuTilda, Initial residual = 1.96211e-07, Final residual = 8.65508e-09, No Iterations 2
ExecutionTime = 7.15 s  ClockTime = 7 s

Time = 473

smoothSolver:  Solving for Ux, Initial residual = 7.64939e-07, Final residual = 6.48635e-08, No Iterations 2
smoothSolver:  Solving for Uy, Initial residual = 1.39736e-06, Final residual = 1.24388e-07, No Iterations 2
GAMG:  Solving for p, Initial residual = 0.000348098, Final residual = 1.66147e-05, No Iterations 2
time step continuity errors : sum local = 2.14899e-07, global = 4.37029e-16, cumulative = -1.0671e-14
smoothSolver:  Solving for nuTilda, Initial residual = 3.17699e-07, Final residual = 8.78238e-09, No Iterations 2
ExecutionTime = 7.17 s  ClockTime = 7 s

Time = 474

smoothSolver:  Solving for Ux, Initial residual = 7.46896e-07, Final residual = 6.33406e-08, No Iterations 2
smoothSolver:  Solving for Uy, Initial residual = 1.37498e-06, Final residual = 1.22432e-07, No Iterations 2
GAMG:  Solving for p, Initial residual = 0.000351064, Final residual = 1.67098e-05, No Iterations 2
time step continuity errors : sum local = 2.16332e-07, global = 3.25494e-16, cumulative = -1.03455e-14
smoothSolver:  Solving for nuTilda, Initial residual = 1.9597e-07, Final residual = 8.6287e-09, No Iterations 2
ExecutionTime = 7.18 s  ClockTime = 7 s

Time = 475

smoothSolver:  Solving for Ux, Initial residual = 7.65492e-07, Final residual = 6.487e-08, No Iterations 2
smoothSolver:  Solving for Uy, Initial residual = 1.39812e-06, Final residual = 1.24405e-07, No Iterations 2
GAMG:  Solving for p, Initial residual = 0.000348302, Final residual = 1.66168e-05, No Iterations 2
time step continuity errors : sum local = 2.14929e-07, global = 1.22413e-15, cumulative = -9.12136e-15
smoothSolver:  Solving for nuTilda, Initial residual = 3.17512e-07, Final residual = 8.757e-09, No Iterations 2
ExecutionTime = 7.19 s  ClockTime = 7 s

Time = 476

smoothSolver:  Solving for Ux, Initial residual = 7.46536e-07, Final residual = 6.33199e-08, No Iterations 2
smoothSolver:  Solving for Uy, Initial residual = 1.37564e-06, Final residual = 1.22352e-07, No Iterations 2
GAMG:  Solving for p, Initial residual = 0.000351263, Final residual = 1.6718e-05, No Iterations 2
time step continuity errors : sum local = 2.16438e-07, global = 9.66902e-16, cumulative = -8.15446e-15
smoothSolver:  Solving for nuTilda, Initial residual = 1.95741e-07, Final residual = 8.60441e-09, No Iterations 2
ExecutionTime = 7.21 s  ClockTime = 7 s

Time = 477

smoothSolver:  Solving for Ux, Initial residual = 7.65635e-07, Final residual = 6.48753e-08, No Iterations 2
smoothSolver:  Solving for Uy, Initial residual = 1.39843e-06, Final residual = 1.24427e-07, No Iterations 2
GAMG:  Solving for p, Initial residual = 0.000348498, Final residual = 1.66158e-05, No Iterations 2
time step continuity errors : sum local = 2.1492e-07, global = 1.28188e-17, cumulative = -8.14164e-15
smoothSolver:  Solving for nuTilda, Initial residual = 3.17336e-07, Final residual = 8.73345e-09, No Iterations 2
ExecutionTime = 7.22 s  ClockTime = 7 s

Time = 478

smoothSolver:  Solving for Ux, Initial residual = 7.46551e-07, Final residual = 6.33122e-08, No Iterations 2
smoothSolver:  Solving for Uy, Initial residual = 1.37587e-06, Final residual = 1.22278e-07, No Iterations 2
GAMG:  Solving for p, Initial residual = 0.000351449, Final residual = 1.67206e-05, No Iterations 2
time step continuity errors : sum local = 2.16475e-07, global = -5.09425e-16, cumulative = -8.65107e-15
smoothSolver:  Solving for nuTilda, Initial residual = 1.95526e-07, Final residual = 8.58154e-09, No Iterations 2
ExecutionTime = 7.23 s  ClockTime = 7 s

Time = 479

smoothSolver:  Solving for Ux, Initial residual = 7.65376e-07, Final residual = 6.48753e-08, No Iterations 2
smoothSolver:  Solving for Uy, Initial residual = 1.39829e-06, Final residual = 1.24435e-07, No Iterations 2
GAMG:  Solving for p, Initial residual = 0.000348674, Final residual = 1.66087e-05, No Iterations 2
time step continuity errors : sum local = 2.14839e-07, global = -2.30788e-16, cumulative = -8.88185e-15
smoothSolver:  Solving for nuTilda, Initial residual = 3.17173e-07, Final residual = 8.71082e-09, No Iterations 2
ExecutionTime = 7.25 s  ClockTime = 7 s

Time = 480

smoothSolver:  Solving for Ux, Initial residual = 7.47329e-07, Final residual = 6.33301e-08, No Iterations 2
smoothSolver:  Solving for Uy, Initial residual = 1.37595e-06, Final residual = 1.2223e-07, No Iterations 2
GAMG:  Solving for p, Initial residual = 0.000351621, Final residual = 1.67164e-05, No Iterations 2
time step continuity errors : sum local = 2.1643e-07, global = 2.13326e-17, cumulative = -8.86052e-15
smoothSolver:  Solving for nuTilda, Initial residual = 1.95326e-07, Final residual = 8.55934e-09, No Iterations 2
ExecutionTime = 7.26 s  ClockTime = 7 s

Time = 481

smoothSolver:  Solving for Ux, Initial residual = 7.64996e-07, Final residual = 6.48747e-08, No Iterations 2
smoothSolver:  Solving for Uy, Initial residual = 1.39794e-06, Final residual = 1.24435e-07, No Iterations 2
GAMG:  Solving for p, Initial residual = 0.00034884, Final residual = 1.66e-05, No Iterations 2
time step continuity errors : sum local = 2.1474e-07, global = -6.37282e-17, cumulative = -8.92425e-15
smoothSolver:  Solving for nuTilda, Initial residual = 3.17027e-07, Final residual = 8.68836e-09, No Iterations 2
ExecutionTime = 7.28 s  ClockTime = 7 s

Time = 482

smoothSolver:  Solving for Ux, Initial residual = 7.48387e-07, Final residual = 6.33579e-08, No Iterations 2
smoothSolver:  Solving for Uy, Initial residual = 1.37604e-06, Final residual = 1.22195e-07, No Iterations 2
GAMG:  Solving for p, Initial residual = 0.000351795, Final residual = 1.67133e-05, No Iterations 2
time step continuity errors : sum local = 2.16397e-07, global = -6.30963e-17, cumulative = -8.98735e-15
smoothSolver:  Solving for nuTilda, Initial residual = 1.95147e-07, Final residual = 8.53643e-09, No Iterations 2
ExecutionTime = 7.29 s  ClockTime = 7 s

Time = 483

smoothSolver:  Solving for Ux, Initial residual = 7.64886e-07, Final residual = 6.48795e-08, No Iterations 2
smoothSolver:  Solving for Uy, Initial residual = 1.39767e-06, Final residual = 1.24442e-07, No Iterations 2
GAMG:  Solving for p, Initial residual = 0.000349011, Final residual = 1.66017e-05, No Iterations 2
time step continuity errors : sum local = 2.14764e-07, global = 1.15693e-16, cumulative = -8.87165e-15
smoothSolver:  Solving for nuTilda, Initial residual = 3.169e-07, Final residual = 8.66476e-09, No Iterations 2
ExecutionTime = 7.3 s  ClockTime = 7 s

Time = 484

smoothSolver:  Solving for Ux, Initial residual = 7.489e-07, Final residual = 6.33725e-08, No Iterations 2
smoothSolver:  Solving for Uy, Initial residual = 1.37625e-06, Final residual = 1.22161e-07, No Iterations 2
GAMG:  Solving for p, Initial residual = 0.000351978, Final residual = 1.67172e-05, No Iterations 2
time step continuity errors : sum local = 2.16449e-07, global = 1.85059e-16, cumulative = -8.68659e-15
smoothSolver:  Solving for nuTilda, Initial residual = 1.94985e-07, Final residual = 8.51271e-09, No Iterations 2
ExecutionTime = 7.32 s  ClockTime = 7 s

Time = 485

smoothSolver:  Solving for Ux, Initial residual = 7.65294e-07, Final residual = 6.4897e-08, No Iterations 2
smoothSolver:  Solving for Uy, Initial residual = 1.39759e-06, Final residual = 1.24466e-07, No Iterations 2
GAMG:  Solving for p, Initial residual = 0.000349179, Final residual = 1.66072e-05, No Iterations 2
time step continuity errors : sum local = 2.14835e-07, global = -3.26574e-16, cumulative = -9.01317e-15
smoothSolver:  Solving for nuTilda, Initial residual = 3.16791e-07, Final residual = 8.6413e-09, No Iterations 2
ExecutionTime = 7.33 s  ClockTime = 7 s

Time = 486

smoothSolver:  Solving for Ux, Initial residual = 7.48956e-07, Final residual = 6.33779e-08, No Iterations 2
smoothSolver:  Solving for Uy, Initial residual = 1.37662e-06, Final residual = 1.2213e-07, No Iterations 2
GAMG:  Solving for p, Initial residual = 0.000352148, Final residual = 1.67237e-05, No Iterations 2
time step continuity errors : sum local = 2.16531e-07, global = -1.66766e-16, cumulative = -9.17993e-15
smoothSolver:  Solving for nuTilda, Initial residual = 1.94843e-07, Final residual = 8.48992e-09, No Iterations 2
ExecutionTime = 7.34 s  ClockTime = 7 s

Time = 487

smoothSolver:  Solving for Ux, Initial residual = 7.66092e-07, Final residual = 6.49222e-08, No Iterations 2
smoothSolver:  Solving for Uy, Initial residual = 1.39767e-06, Final residual = 1.24493e-07, No Iterations 2
GAMG:  Solving for p, Initial residual = 0.000349343, Final residual = 1.66055e-05, No Iterations 2
time step continuity errors : sum local = 2.1482e-07, global = -8.35731e-16, cumulative = -1.00157e-14
smoothSolver:  Solving for nuTilda, Initial residual = 3.16703e-07, Final residual = 8.61875e-09, No Iterations 2
ExecutionTime = 7.36 s  ClockTime = 7 s

Time = 488

smoothSolver:  Solving for Ux, Initial residual = 7.49138e-07, Final residual = 6.33892e-08, No Iterations 2
smoothSolver:  Solving for Uy, Initial residual = 1.37697e-06, Final residual = 1.22113e-07, No Iterations 2
GAMG:  Solving for p, Initial residual = 0.000352298, Final residual = 1.67283e-05, No Iterations 2
time step continuity errors : sum local = 2.1659e-07, global = 3.23903e-16, cumulative = -9.69176e-15
smoothSolver:  Solving for nuTilda, Initial residual = 1.94727e-07, Final residual = 8.4674e-09, No Iterations 2
ExecutionTime = 7.37 s  ClockTime = 7 s

Time = 489

smoothSolver:  Solving for Ux, Initial residual = 7.66702e-07, Final residual = 6.49457e-08, No Iterations 2
smoothSolver:  Solving for Uy, Initial residual = 1.39749e-06, Final residual = 1.24504e-07, No Iterations 2
GAMG:  Solving for p, Initial residual = 0.000349502, Final residual = 1.66007e-05, No Iterations 2
time step continuity errors : sum local = 2.14766e-07, global = -5.64066e-16, cumulative = -1.02558e-14
smoothSolver:  Solving for nuTilda, Initial residual = 3.16637e-07, Final residual = 8.59634e-09, No Iterations 2
ExecutionTime = 7.38 s  ClockTime = 7 s

Time = 490

smoothSolver:  Solving for Ux, Initial residual = 7.4978e-07, Final residual = 6.34185e-08, No Iterations 2
smoothSolver:  Solving for Uy, Initial residual = 1.37707e-06, Final residual = 1.22106e-07, No Iterations 2
GAMG:  Solving for p, Initial residual = 0.00035244, Final residual = 1.67359e-05, No Iterations 2
time step continuity errors : sum local = 2.16686e-07, global = 1.27277e-15, cumulative = -8.98305e-15
smoothSolver:  Solving for nuTilda, Initial residual = 1.94631e-07, Final residual = 8.4454e-09, No Iterations 2
ExecutionTime = 7.4 s  ClockTime = 7 s

Time = 491

smoothSolver:  Solving for Ux, Initial residual = 7.66669e-07, Final residual = 6.49595e-08, No Iterations 2
smoothSolver:  Solving for Uy, Initial residual = 1.39674e-06, Final residual = 1.24492e-07, No Iterations 2
GAMG:  Solving for p, Initial residual = 0.000349661, Final residual = 1.6604e-05, No Iterations 2
time step continuity errors : sum local = 2.1481e-07, global = -4.78834e-16, cumulative = -9.46189e-15
smoothSolver:  Solving for nuTilda, Initial residual = 3.1659e-07, Final residual = 8.57485e-09, No Iterations 2
ExecutionTime = 7.41 s  ClockTime = 8 s

Time = 492

smoothSolver:  Solving for Ux, Initial residual = 7.50557e-07, Final residual = 6.3454e-08, No Iterations 2
smoothSolver:  Solving for Uy, Initial residual = 1.37674e-06, Final residual = 1.22089e-07, No Iterations 2
GAMG:  Solving for p, Initial residual = 0.000352586, Final residual = 1.67455e-05, No Iterations 2
time step continuity errors : sum local = 2.16806e-07, global = -4.97519e-17, cumulative = -9.51164e-15
smoothSolver:  Solving for nuTilda, Initial residual = 1.94558e-07, Final residual = 8.42455e-09, No Iterations 2
ExecutionTime = 7.42 s  ClockTime = 8 s

Time = 493

smoothSolver:  Solving for Ux, Initial residual = 7.66047e-07, Final residual = 6.49663e-08, No Iterations 2
smoothSolver:  Solving for Uy, Initial residual = 1.39563e-06, Final residual = 1.24468e-07, No Iterations 2
GAMG:  Solving for p, Initial residual = 0.000349813, Final residual = 1.66113e-05, No Iterations 2
time step continuity errors : sum local = 2.14902e-07, global = -3.93144e-16, cumulative = -9.90478e-15
smoothSolver:  Solving for nuTilda, Initial residual = 3.16564e-07, Final residual = 8.55443e-09, No Iterations 2
ExecutionTime = 7.43 s  ClockTime = 8 s

Time = 494

smoothSolver:  Solving for Ux, Initial residual = 7.51423e-07, Final residual = 6.34886e-08, No Iterations 2
smoothSolver:  Solving for Uy, Initial residual = 1.37602e-06, Final residual = 1.22043e-07, No Iterations 2
GAMG:  Solving for p, Initial residual = 0.000352732, Final residual = 1.67494e-05, No Iterations 2
time step continuity errors : sum local = 2.16857e-07, global = -4.37089e-17, cumulative = -9.94849e-15
smoothSolver:  Solving for nuTilda, Initial residual = 1.94505e-07, Final residual = 8.40458e-09, No Iterations 2
ExecutionTime = 7.45 s  ClockTime = 8 s

Time = 495

smoothSolver:  Solving for Ux, Initial residual = 7.65236e-07, Final residual = 6.49726e-08, No Iterations 2
smoothSolver:  Solving for Uy, Initial residual = 1.39458e-06, Final residual = 1.24453e-07, No Iterations 2
GAMG:  Solving for p, Initial residual = 0.000349951, Final residual = 1.66121e-05, No Iterations 2
time step continuity errors : sum local = 2.14915e-07, global = 4.85697e-16, cumulative = -9.4628e-15
smoothSolver:  Solving for nuTilda, Initial residual = 3.16556e-07, Final residual = 8.53484e-09, No Iterations 2
ExecutionTime = 7.46 s  ClockTime = 8 s

Time = 496

smoothSolver:  Solving for Ux, Initial residual = 7.52365e-07, Final residual = 6.35226e-08, No Iterations 2
smoothSolver:  Solving for Uy, Initial residual = 1.37516e-06, Final residual = 1.21975e-07, No Iterations 2
GAMG:  Solving for p, Initial residual = 0.000352868, Final residual = 1.67449e-05, No Iterations 2
time step continuity errors : sum local = 2.16807e-07, global = -7.31954e-16, cumulative = -1.01947e-14
smoothSolver:  Solving for nuTilda, Initial residual = 1.9447e-07, Final residual = 8.38551e-09, No Iterations 2
ExecutionTime = 7.47 s  ClockTime = 8 s

Time = 497

smoothSolver:  Solving for Ux, Initial residual = 7.64552e-07, Final residual = 6.4983e-08, No Iterations 2
smoothSolver:  Solving for Uy, Initial residual = 1.39387e-06, Final residual = 1.24454e-07, No Iterations 2
GAMG:  Solving for p, Initial residual = 0.000350076, Final residual = 1.66059e-05, No Iterations 2
time step continuity errors : sum local = 2.14845e-07, global = 3.74494e-16, cumulative = -9.82026e-15
smoothSolver:  Solving for nuTilda, Initial residual = 3.16565e-07, Final residual = 8.51636e-09, No Iterations 2
ExecutionTime = 7.49 s  ClockTime = 8 s

Time = 498

smoothSolver:  Solving for Ux, Initial residual = 7.53246e-07, Final residual = 6.35564e-08, No Iterations 2
smoothSolver:  Solving for Uy, Initial residual = 1.37439e-06, Final residual = 1.21908e-07, No Iterations 2
GAMG:  Solving for p, Initial residual = 0.000352991, Final residual = 1.67387e-05, No Iterations 2
time step continuity errors : sum local = 2.16735e-07, global = -6.63712e-16, cumulative = -1.0484e-14
smoothSolver:  Solving for nuTilda, Initial residual = 1.94451e-07, Final residual = 8.36754e-09, No Iterations 2
ExecutionTime = 7.5 s  ClockTime = 8 s

Time = 499

smoothSolver:  Solving for Ux, Initial residual = 7.64073e-07, Final residual = 6.49976e-08, No Iterations 2
smoothSolver:  Solving for Uy, Initial residual = 1.39336e-06, Final residual = 1.24461e-07, No Iterations 2
GAMG:  Solving for p, Initial residual = 0.000350197, Final residual = 1.66029e-05, No Iterations 2
time step continuity errors : sum local = 2.14813e-07, global = -1.91097e-16, cumulative = -1.06751e-14
smoothSolver:  Solving for nuTilda, Initial residual = 3.16587e-07, Final residual = 8.49903e-09, No Iterations 2
ExecutionTime = 7.51 s  ClockTime = 8 s

Time = 500

smoothSolver:  Solving for Ux, Initial residual = 7.53961e-07, Final residual = 6.35861e-08, No Iterations 2
smoothSolver:  Solving for Uy, Initial residual = 1.37385e-06, Final residual = 1.21865e-07, No Iterations 2
GAMG:  Solving for p, Initial residual = 0.000353116, Final residual = 1.67399e-05, No Iterations 2
time step continuity errors : sum local = 2.16752e-07, global = 1.9405e-16, cumulative = -1.0481e-14
smoothSolver:  Solving for nuTilda, Initial residual = 1.94445e-07, Final residual = 8.35075e-09, No Iterations 2
ExecutionTime = 7.56 s  ClockTime = 8 s

End

